* NGSPICE file created from wishbone_nn.ext - technology: sky130A

* Black-box entry subcircuit for sky130_fd_sc_hd__fill_1 abstract view
.subckt sky130_fd_sc_hd__fill_1 VGND VNB VPB VPWR
.ends

* Black-box entry subcircuit for sky130_fd_sc_hd__diode_2 abstract view
.subckt sky130_fd_sc_hd__diode_2 DIODE VGND VNB VPB VPWR
.ends

* Black-box entry subcircuit for sky130_fd_sc_hd__tapvpwrvgnd_1 abstract view
.subckt sky130_fd_sc_hd__tapvpwrvgnd_1 VGND VPWR
.ends

* Black-box entry subcircuit for sky130_fd_sc_hd__fill_2 abstract view
.subckt sky130_fd_sc_hd__fill_2 VGND VNB VPB VPWR
.ends

* Black-box entry subcircuit for sky130_fd_sc_hd__dlygate4sd3_1 abstract view
.subckt sky130_fd_sc_hd__dlygate4sd3_1 A VGND VNB VPB VPWR X
.ends

* Black-box entry subcircuit for sky130_fd_sc_hd__decap_3 abstract view
.subckt sky130_fd_sc_hd__decap_3 VGND VNB VPB VPWR
.ends

* Black-box entry subcircuit for sky130_fd_sc_hd__dfxtp_1 abstract view
.subckt sky130_fd_sc_hd__dfxtp_1 CLK D VGND VNB VPB VPWR Q
.ends

* Black-box entry subcircuit for sky130_fd_sc_hd__buf_8 abstract view
.subckt sky130_fd_sc_hd__buf_8 A VGND VNB VPB VPWR X
.ends

* Black-box entry subcircuit for sky130_fd_sc_hd__or4_1 abstract view
.subckt sky130_fd_sc_hd__or4_1 A B C D VGND VNB VPB VPWR X
.ends

* Black-box entry subcircuit for sky130_fd_sc_hd__decap_4 abstract view
.subckt sky130_fd_sc_hd__decap_4 VGND VNB VPB VPWR
.ends

* Black-box entry subcircuit for sky130_fd_sc_hd__decap_6 abstract view
.subckt sky130_fd_sc_hd__decap_6 VGND VNB VPB VPWR
.ends

* Black-box entry subcircuit for sky130_fd_sc_hd__mux2_1 abstract view
.subckt sky130_fd_sc_hd__mux2_1 A0 A1 S VGND VNB VPB VPWR X
.ends

* Black-box entry subcircuit for sky130_fd_sc_hd__decap_8 abstract view
.subckt sky130_fd_sc_hd__decap_8 VGND VNB VPB VPWR
.ends

* Black-box entry subcircuit for sky130_ef_sc_hd__decap_12 abstract view
.subckt sky130_ef_sc_hd__decap_12 VGND VNB VPB VPWR
.ends

* Black-box entry subcircuit for sky130_fd_sc_hd__a21oi_1 abstract view
.subckt sky130_fd_sc_hd__a21oi_1 A1 A2 B1 VGND VNB VPB VPWR Y
.ends

* Black-box entry subcircuit for sky130_fd_sc_hd__a22o_1 abstract view
.subckt sky130_fd_sc_hd__a22o_1 A1 A2 B1 B2 VGND VNB VPB VPWR X
.ends

* Black-box entry subcircuit for sky130_fd_sc_hd__mux4_1 abstract view
.subckt sky130_fd_sc_hd__mux4_1 A0 A1 A2 A3 S0 S1 VGND VNB VPB VPWR X
.ends

* Black-box entry subcircuit for sky130_fd_sc_hd__clkbuf_2 abstract view
.subckt sky130_fd_sc_hd__clkbuf_2 A VGND VNB VPB VPWR X
.ends

* Black-box entry subcircuit for sky130_fd_sc_hd__buf_12 abstract view
.subckt sky130_fd_sc_hd__buf_12 A VGND VNB VPB VPWR X
.ends

* Black-box entry subcircuit for sky130_fd_sc_hd__buf_6 abstract view
.subckt sky130_fd_sc_hd__buf_6 A VGND VNB VPB VPWR X
.ends

* Black-box entry subcircuit for sky130_fd_sc_hd__nand2_1 abstract view
.subckt sky130_fd_sc_hd__nand2_1 A B VGND VNB VPB VPWR Y
.ends

* Black-box entry subcircuit for sky130_fd_sc_hd__a21o_1 abstract view
.subckt sky130_fd_sc_hd__a21o_1 A1 A2 B1 VGND VNB VPB VPWR X
.ends

* Black-box entry subcircuit for sky130_fd_sc_hd__and2b_1 abstract view
.subckt sky130_fd_sc_hd__and2b_1 A_N B VGND VNB VPB VPWR X
.ends

* Black-box entry subcircuit for sky130_fd_sc_hd__and2_1 abstract view
.subckt sky130_fd_sc_hd__and2_1 A B VGND VNB VPB VPWR X
.ends

* Black-box entry subcircuit for sky130_fd_sc_hd__clkbuf_16 abstract view
.subckt sky130_fd_sc_hd__clkbuf_16 A VGND VNB VPB VPWR X
.ends

* Black-box entry subcircuit for sky130_fd_sc_hd__or4_4 abstract view
.subckt sky130_fd_sc_hd__or4_4 A B C D VGND VNB VPB VPWR X
.ends

* Black-box entry subcircuit for sky130_fd_sc_hd__and3b_1 abstract view
.subckt sky130_fd_sc_hd__and3b_1 A_N B C VGND VNB VPB VPWR X
.ends

* Black-box entry subcircuit for sky130_fd_sc_hd__nand2_2 abstract view
.subckt sky130_fd_sc_hd__nand2_2 A B VGND VNB VPB VPWR Y
.ends

* Black-box entry subcircuit for sky130_fd_sc_hd__or2_1 abstract view
.subckt sky130_fd_sc_hd__or2_1 A B VGND VNB VPB VPWR X
.ends

* Black-box entry subcircuit for sky130_fd_sc_hd__o221a_1 abstract view
.subckt sky130_fd_sc_hd__o221a_1 A1 A2 B1 B2 C1 VGND VNB VPB VPWR X
.ends

* Black-box entry subcircuit for sky130_fd_sc_hd__nand2b_1 abstract view
.subckt sky130_fd_sc_hd__nand2b_1 A_N B VGND VNB VPB VPWR Y
.ends

* Black-box entry subcircuit for sky130_fd_sc_hd__and3b_4 abstract view
.subckt sky130_fd_sc_hd__and3b_4 A_N B C VGND VNB VPB VPWR X
.ends

* Black-box entry subcircuit for sky130_fd_sc_hd__dfxtp_2 abstract view
.subckt sky130_fd_sc_hd__dfxtp_2 CLK D VGND VNB VPB VPWR Q
.ends

* Black-box entry subcircuit for sky130_fd_sc_hd__and4bb_1 abstract view
.subckt sky130_fd_sc_hd__and4bb_1 A_N B_N C D VGND VNB VPB VPWR X
.ends

* Black-box entry subcircuit for sky130_fd_sc_hd__or4bb_1 abstract view
.subckt sky130_fd_sc_hd__or4bb_1 A B C_N D_N VGND VNB VPB VPWR X
.ends

* Black-box entry subcircuit for sky130_fd_sc_hd__dfxtp_4 abstract view
.subckt sky130_fd_sc_hd__dfxtp_4 CLK D VGND VNB VPB VPWR Q
.ends

* Black-box entry subcircuit for sky130_fd_sc_hd__buf_2 abstract view
.subckt sky130_fd_sc_hd__buf_2 A VGND VNB VPB VPWR X
.ends

* Black-box entry subcircuit for sky130_fd_sc_hd__nand4_1 abstract view
.subckt sky130_fd_sc_hd__nand4_1 A B C D VGND VNB VPB VPWR Y
.ends

* Black-box entry subcircuit for sky130_fd_sc_hd__a31o_1 abstract view
.subckt sky130_fd_sc_hd__a31o_1 A1 A2 A3 B1 VGND VNB VPB VPWR X
.ends

* Black-box entry subcircuit for sky130_fd_sc_hd__or4b_4 abstract view
.subckt sky130_fd_sc_hd__or4b_4 A B C D_N VGND VNB VPB VPWR X
.ends

* Black-box entry subcircuit for sky130_fd_sc_hd__nand3_2 abstract view
.subckt sky130_fd_sc_hd__nand3_2 A B C VGND VNB VPB VPWR Y
.ends

* Black-box entry subcircuit for sky130_fd_sc_hd__and3_1 abstract view
.subckt sky130_fd_sc_hd__and3_1 A B C VGND VNB VPB VPWR X
.ends

* Black-box entry subcircuit for sky130_fd_sc_hd__clkbuf_4 abstract view
.subckt sky130_fd_sc_hd__clkbuf_4 A VGND VNB VPB VPWR X
.ends

* Black-box entry subcircuit for sky130_fd_sc_hd__nor3b_4 abstract view
.subckt sky130_fd_sc_hd__nor3b_4 A B C_N VGND VNB VPB VPWR Y
.ends

* Black-box entry subcircuit for sky130_fd_sc_hd__clkbuf_1 abstract view
.subckt sky130_fd_sc_hd__clkbuf_1 A VGND VNB VPB VPWR X
.ends

* Black-box entry subcircuit for sky130_fd_sc_hd__buf_1 abstract view
.subckt sky130_fd_sc_hd__buf_1 A VGND VNB VPB VPWR X
.ends

* Black-box entry subcircuit for sky130_fd_sc_hd__and3_2 abstract view
.subckt sky130_fd_sc_hd__and3_2 A B C VGND VNB VPB VPWR X
.ends

* Black-box entry subcircuit for sky130_fd_sc_hd__o21bai_1 abstract view
.subckt sky130_fd_sc_hd__o21bai_1 A1 A2 B1_N VGND VNB VPB VPWR Y
.ends

* Black-box entry subcircuit for sky130_fd_sc_hd__and4b_2 abstract view
.subckt sky130_fd_sc_hd__and4b_2 A_N B C D VGND VNB VPB VPWR X
.ends

* Black-box entry subcircuit for sky130_fd_sc_hd__nor3_1 abstract view
.subckt sky130_fd_sc_hd__nor3_1 A B C VGND VNB VPB VPWR Y
.ends

* Black-box entry subcircuit for sky130_fd_sc_hd__xor2_1 abstract view
.subckt sky130_fd_sc_hd__xor2_1 A B VGND VNB VPB VPWR X
.ends

* Black-box entry subcircuit for sky130_fd_sc_hd__and4_1 abstract view
.subckt sky130_fd_sc_hd__and4_1 A B C D VGND VNB VPB VPWR X
.ends

* Black-box entry subcircuit for sky130_fd_sc_hd__nor2_1 abstract view
.subckt sky130_fd_sc_hd__nor2_1 A B VGND VNB VPB VPWR Y
.ends

* Black-box entry subcircuit for sky130_fd_sc_hd__dlymetal6s2s_1 abstract view
.subckt sky130_fd_sc_hd__dlymetal6s2s_1 A VGND VNB VPB VPWR X
.ends

* Black-box entry subcircuit for sky130_fd_sc_hd__nor4_1 abstract view
.subckt sky130_fd_sc_hd__nor4_1 A B C D VGND VNB VPB VPWR Y
.ends

* Black-box entry subcircuit for sky130_fd_sc_hd__inv_2 abstract view
.subckt sky130_fd_sc_hd__inv_2 A VGND VNB VPB VPWR Y
.ends

* Black-box entry subcircuit for sky130_fd_sc_hd__xnor2_2 abstract view
.subckt sky130_fd_sc_hd__xnor2_2 A B VGND VNB VPB VPWR Y
.ends

* Black-box entry subcircuit for sky130_fd_sc_hd__clkbuf_8 abstract view
.subckt sky130_fd_sc_hd__clkbuf_8 A VGND VNB VPB VPWR X
.ends

* Black-box entry subcircuit for sky130_fd_sc_hd__or2_4 abstract view
.subckt sky130_fd_sc_hd__or2_4 A B VGND VNB VPB VPWR X
.ends

* Black-box entry subcircuit for sky130_fd_sc_hd__buf_4 abstract view
.subckt sky130_fd_sc_hd__buf_4 A VGND VNB VPB VPWR X
.ends

* Black-box entry subcircuit for sky130_fd_sc_hd__or3_1 abstract view
.subckt sky130_fd_sc_hd__or3_1 A B C VGND VNB VPB VPWR X
.ends

* Black-box entry subcircuit for sky130_fd_sc_hd__or4bb_4 abstract view
.subckt sky130_fd_sc_hd__or4bb_4 A B C_N D_N VGND VNB VPB VPWR X
.ends

* Black-box entry subcircuit for sky130_fd_sc_hd__clkdlybuf4s25_1 abstract view
.subckt sky130_fd_sc_hd__clkdlybuf4s25_1 A VGND VNB VPB VPWR X
.ends

.subckt wishbone_nn vccd1 vssd1 wb_clk_i wb_rst_i wbs_ack_o wbs_adr_i[0] wbs_adr_i[10]
+ wbs_adr_i[11] wbs_adr_i[12] wbs_adr_i[13] wbs_adr_i[14] wbs_adr_i[15] wbs_adr_i[16]
+ wbs_adr_i[17] wbs_adr_i[18] wbs_adr_i[19] wbs_adr_i[1] wbs_adr_i[20] wbs_adr_i[21]
+ wbs_adr_i[22] wbs_adr_i[23] wbs_adr_i[24] wbs_adr_i[25] wbs_adr_i[26] wbs_adr_i[27]
+ wbs_adr_i[28] wbs_adr_i[29] wbs_adr_i[2] wbs_adr_i[30] wbs_adr_i[31] wbs_adr_i[3]
+ wbs_adr_i[4] wbs_adr_i[5] wbs_adr_i[6] wbs_adr_i[7] wbs_adr_i[8] wbs_adr_i[9] wbs_cyc_i
+ wbs_dat_i[0] wbs_dat_i[10] wbs_dat_i[11] wbs_dat_i[12] wbs_dat_i[13] wbs_dat_i[14]
+ wbs_dat_i[15] wbs_dat_i[16] wbs_dat_i[17] wbs_dat_i[18] wbs_dat_i[19] wbs_dat_i[1]
+ wbs_dat_i[20] wbs_dat_i[21] wbs_dat_i[22] wbs_dat_i[23] wbs_dat_i[24] wbs_dat_i[25]
+ wbs_dat_i[26] wbs_dat_i[27] wbs_dat_i[28] wbs_dat_i[29] wbs_dat_i[2] wbs_dat_i[30]
+ wbs_dat_i[31] wbs_dat_i[3] wbs_dat_i[4] wbs_dat_i[5] wbs_dat_i[6] wbs_dat_i[7] wbs_dat_i[8]
+ wbs_dat_i[9] wbs_dat_o[0] wbs_dat_o[10] wbs_dat_o[11] wbs_dat_o[12] wbs_dat_o[13]
+ wbs_dat_o[14] wbs_dat_o[15] wbs_dat_o[16] wbs_dat_o[17] wbs_dat_o[18] wbs_dat_o[19]
+ wbs_dat_o[1] wbs_dat_o[20] wbs_dat_o[21] wbs_dat_o[22] wbs_dat_o[23] wbs_dat_o[24]
+ wbs_dat_o[25] wbs_dat_o[26] wbs_dat_o[27] wbs_dat_o[28] wbs_dat_o[29] wbs_dat_o[2]
+ wbs_dat_o[30] wbs_dat_o[31] wbs_dat_o[3] wbs_dat_o[4] wbs_dat_o[5] wbs_dat_o[6]
+ wbs_dat_o[7] wbs_dat_o[8] wbs_dat_o[9] wbs_sel_i[0] wbs_sel_i[1] wbs_sel_i[2] wbs_sel_i[3]
+ wbs_stb_i wbs_we_i
XFILLER_0_27_93 vssd1 vssd1 vccd1 vccd1 sky130_fd_sc_hd__fill_1
XANTENNA__0674__S _0691_/S vssd1 vssd1 vccd1 vccd1 sky130_fd_sc_hd__diode_2
XTAP_177 vssd1 vccd1 sky130_fd_sc_hd__tapvpwrvgnd_1
XTAP_188 vssd1 vccd1 sky130_fd_sc_hd__tapvpwrvgnd_1
XTAP_199 vssd1 vccd1 sky130_fd_sc_hd__tapvpwrvgnd_1
XFILLER_0_9_466 vssd1 vssd1 vccd1 vccd1 sky130_fd_sc_hd__fill_2
XFILLER_0_32_225 vssd1 vssd1 vccd1 vccd1 sky130_fd_sc_hd__fill_1
Xhold351 _0784_/X vssd1 vssd1 vccd1 vccd1 _1059_/D sky130_fd_sc_hd__dlygate4sd3_1
XFILLER_0_17_277 vssd1 vssd1 vccd1 vccd1 sky130_fd_sc_hd__decap_3
Xhold340 _0572_/X vssd1 vssd1 vccd1 vccd1 _0875_/D sky130_fd_sc_hd__dlygate4sd3_1
Xhold362 _0843_/X vssd1 vssd1 vccd1 vccd1 _1108_/D sky130_fd_sc_hd__dlygate4sd3_1
Xhold384 _0739_/X vssd1 vssd1 vccd1 vccd1 _1015_/D sky130_fd_sc_hd__dlygate4sd3_1
Xhold395 _0576_/X vssd1 vssd1 vccd1 vccd1 _0879_/D sky130_fd_sc_hd__dlygate4sd3_1
Xhold373 _1094_/Q vssd1 vssd1 vccd1 vccd1 hold373/X sky130_fd_sc_hd__dlygate4sd3_1
XFILLER_0_2_7 vssd1 vssd1 vccd1 vccd1 sky130_fd_sc_hd__fill_1
XANTENNA__0849__S _0860_/S vssd1 vssd1 vccd1 vccd1 sky130_fd_sc_hd__diode_2
XFILLER_0_7_92 vssd1 vssd1 vccd1 vccd1 sky130_fd_sc_hd__fill_2
XANTENNA__0584__S _0594_/S vssd1 vssd1 vccd1 vccd1 sky130_fd_sc_hd__diode_2
XANTENNA__1104__CLK _1104_/CLK vssd1 vssd1 vccd1 vccd1 sky130_fd_sc_hd__diode_2
XANTENNA__0759__S _0765_/S vssd1 vssd1 vccd1 vccd1 sky130_fd_sc_hd__diode_2
XFILLER_0_13_62 vssd1 vssd1 vccd1 vccd1 sky130_fd_sc_hd__fill_2
XFILLER_0_13_51 vssd1 vssd1 vccd1 vccd1 sky130_fd_sc_hd__fill_2
XFILLER_0_6_403 vssd1 vssd1 vccd1 vccd1 sky130_fd_sc_hd__fill_2
X_0985_ _1119_/CLK _0985_/D vssd1 vssd1 vccd1 vccd1 _0985_/Q sky130_fd_sc_hd__dfxtp_1
XFILLER_0_6_469 vssd1 vssd1 vccd1 vccd1 sky130_fd_sc_hd__fill_2
XANTENNA__0669__S _0691_/S vssd1 vssd1 vccd1 vccd1 sky130_fd_sc_hd__diode_2
Xfanout116 _0860_/S vssd1 vssd1 vccd1 vccd1 _0575_/S sky130_fd_sc_hd__buf_8
Xfanout127 _0552_/S0 vssd1 vssd1 vccd1 vccd1 _0480_/S0 sky130_fd_sc_hd__buf_8
Xfanout105 _0847_/S vssd1 vssd1 vccd1 vccd1 _0838_/S sky130_fd_sc_hd__buf_8
X_0419_ input6/X input5/X input8/X input7/X vssd1 vssd1 vccd1 vccd1 _0421_/C sky130_fd_sc_hd__or4_1
XFILLER_0_10_475 vssd1 vssd1 vccd1 vccd1 sky130_fd_sc_hd__fill_1
XFILLER_0_18_597 vssd1 vssd1 vccd1 vccd1 sky130_fd_sc_hd__fill_2
XFILLER_0_18_520 vssd1 vssd1 vccd1 vccd1 sky130_fd_sc_hd__decap_4
XANTENNA__0579__S _0594_/S vssd1 vssd1 vccd1 vccd1 sky130_fd_sc_hd__diode_2
Xhold181 _0788_/X vssd1 vssd1 vccd1 vccd1 _1063_/D sky130_fd_sc_hd__dlygate4sd3_1
Xhold170 _0871_/Q vssd1 vssd1 vccd1 vccd1 hold170/X sky130_fd_sc_hd__dlygate4sd3_1
Xhold192 _0573_/X vssd1 vssd1 vccd1 vccd1 _0876_/D sky130_fd_sc_hd__dlygate4sd3_1
XFILLER_0_18_29 vssd1 vssd1 vccd1 vccd1 sky130_fd_sc_hd__decap_6
X_0770_ hold560/X hold511/X _0782_/S vssd1 vssd1 vccd1 vccd1 _0770_/X sky130_fd_sc_hd__mux2_1
XANTENNA__0489__S _0545_/S vssd1 vssd1 vccd1 vccd1 sky130_fd_sc_hd__diode_2
XANTENNA_clkbuf_leaf_4_wb_clk_i_A clkbuf_leaf_8_wb_clk_i/A vssd1 vssd1 vccd1 vccd1
+ sky130_fd_sc_hd__diode_2
XANTENNA__0518__A _0554_/A vssd1 vssd1 vccd1 vccd1 sky130_fd_sc_hd__diode_2
XFILLER_0_34_309 vssd1 vssd1 vccd1 vccd1 sky130_fd_sc_hd__fill_1
X_0968_ _1105_/CLK hold13/X vssd1 vssd1 vccd1 vccd1 _0968_/Q sky130_fd_sc_hd__dfxtp_1
XFILLER_0_30_526 vssd1 vssd1 vccd1 vccd1 sky130_fd_sc_hd__decap_6
X_0899_ _1103_/CLK _0899_/D vssd1 vssd1 vccd1 vccd1 _0899_/Q sky130_fd_sc_hd__dfxtp_1
XANTENNA__0491__S1 _0512_/S1 vssd1 vssd1 vccd1 vccd1 sky130_fd_sc_hd__diode_2
XFILLER_0_15_556 vssd1 vssd1 vccd1 vccd1 sky130_fd_sc_hd__fill_2
XFILLER_0_10_250 vssd1 vssd1 vccd1 vccd1 sky130_fd_sc_hd__fill_2
XFILLER_0_33_397 vssd1 vssd1 vccd1 vccd1 sky130_fd_sc_hd__fill_1
XFILLER_0_18_350 vssd1 vssd1 vccd1 vccd1 sky130_fd_sc_hd__decap_8
XANTENNA__0772__S _0782_/S vssd1 vssd1 vccd1 vccd1 sky130_fd_sc_hd__diode_2
XFILLER_0_29_615 vssd1 vssd1 vccd1 vccd1 sky130_fd_sc_hd__fill_1
X_0822_ hold410/X hold166/X _0838_/S vssd1 vssd1 vccd1 vccd1 _0822_/X sky130_fd_sc_hd__mux2_1
XFILLER_0_8_509 vssd1 vssd1 vccd1 vccd1 sky130_fd_sc_hd__fill_2
X_0753_ hold406/X hold443/X _0765_/S vssd1 vssd1 vccd1 vccd1 _0753_/X sky130_fd_sc_hd__mux2_1
XFILLER_0_24_386 vssd1 vssd1 vccd1 vccd1 sky130_fd_sc_hd__fill_2
XFILLER_0_12_526 vssd1 vssd1 vccd1 vccd1 sky130_fd_sc_hd__fill_2
XFILLER_0_12_515 vssd1 vssd1 vccd1 vccd1 sky130_fd_sc_hd__fill_2
XFILLER_0_3_225 vssd1 vssd1 vccd1 vccd1 sky130_fd_sc_hd__fill_2
X_0684_ hold2/X hold35/X _0699_/S vssd1 vssd1 vccd1 vccd1 hold36/A sky130_fd_sc_hd__mux2_1
XFILLER_0_35_93 vssd1 vssd1 vccd1 vccd1 sky130_ef_sc_hd__decap_12
XANTENNA__0682__S _0691_/S vssd1 vssd1 vccd1 vccd1 sky130_fd_sc_hd__diode_2
XFILLER_0_19_125 vssd1 vssd1 vccd1 vccd1 sky130_fd_sc_hd__fill_2
X_1098_ _1105_/CLK hold64/X vssd1 vssd1 vccd1 vccd1 hold63/A sky130_fd_sc_hd__dfxtp_1
XFILLER_0_19_158 vssd1 vssd1 vccd1 vccd1 sky130_fd_sc_hd__decap_4
XFILLER_0_15_386 vssd1 vssd1 vccd1 vccd1 sky130_fd_sc_hd__fill_2
XANTENNA__0464__S1 _0480_/S1 vssd1 vssd1 vccd1 vccd1 sky130_fd_sc_hd__diode_2
XANTENNA__0857__S _0860_/S vssd1 vssd1 vccd1 vccd1 sky130_fd_sc_hd__diode_2
XANTENNA__0592__S _0594_/S vssd1 vssd1 vccd1 vccd1 sky130_fd_sc_hd__diode_2
XFILLER_0_21_345 vssd1 vssd1 vccd1 vccd1 sky130_fd_sc_hd__fill_1
XFILLER_0_21_312 vssd1 vssd1 vccd1 vccd1 sky130_fd_sc_hd__fill_1
XANTENNA__0455__S1 _0480_/S1 vssd1 vssd1 vccd1 vccd1 sky130_fd_sc_hd__diode_2
X_1021_ _1124_/CLK hold6/X vssd1 vssd1 vccd1 vccd1 _1021_/Q sky130_fd_sc_hd__dfxtp_1
XFILLER_0_24_161 vssd1 vssd1 vccd1 vccd1 sky130_fd_sc_hd__decap_4
XANTENNA__0982__CLK _1120_/CLK vssd1 vssd1 vccd1 vccd1 sky130_fd_sc_hd__diode_2
XFILLER_0_21_84 vssd1 vssd1 vccd1 vccd1 sky130_ef_sc_hd__decap_12
XFILLER_0_16_117 vssd1 vssd1 vccd1 vccd1 sky130_fd_sc_hd__fill_2
XFILLER_0_4_523 vssd1 vssd1 vccd1 vccd1 sky130_fd_sc_hd__fill_2
X_0805_ _0613_/B hold552/X input1/X vssd1 vssd1 vccd1 vccd1 _0805_/Y sky130_fd_sc_hd__a21oi_1
X_0598_ hold380/X hold357/X _0609_/S vssd1 vssd1 vccd1 vccd1 _0598_/X sky130_fd_sc_hd__mux2_1
X_0667_ _0806_/C _0655_/Y _0665_/Y _0666_/X vssd1 vssd1 vccd1 vccd1 _0667_/X sky130_fd_sc_hd__a22o_1
XFILLER_0_12_389 vssd1 vssd1 vccd1 vccd1 sky130_fd_sc_hd__decap_6
XFILLER_0_4_578 vssd1 vssd1 vccd1 vccd1 sky130_fd_sc_hd__fill_2
X_0736_ hold127/X hold303/X _0749_/S vssd1 vssd1 vccd1 vccd1 _0736_/X sky130_fd_sc_hd__mux2_1
XFILLER_0_34_3 vssd1 vssd1 vccd1 vccd1 sky130_ef_sc_hd__decap_12
XANTENNA__0677__S _0691_/S vssd1 vssd1 vccd1 vccd1 sky130_fd_sc_hd__diode_2
Xhold41 hold41/A vssd1 vssd1 vccd1 vccd1 hold41/X sky130_fd_sc_hd__dlygate4sd3_1
XANTENNA__0587__S _0594_/S vssd1 vssd1 vccd1 vccd1 sky130_fd_sc_hd__diode_2
Xhold30 wbs_dat_i[17] vssd1 vssd1 vccd1 vccd1 hold30/X sky130_fd_sc_hd__dlygate4sd3_1
Xhold63 hold63/A vssd1 vssd1 vccd1 vccd1 hold63/X sky130_fd_sc_hd__dlygate4sd3_1
Xhold52 hold52/A vssd1 vssd1 vccd1 vccd1 hold52/X sky130_fd_sc_hd__dlygate4sd3_1
Xhold74 hold74/A vssd1 vssd1 vccd1 vccd1 hold74/X sky130_fd_sc_hd__dlygate4sd3_1
Xhold96 hold96/A vssd1 vssd1 vccd1 vccd1 hold96/X sky130_fd_sc_hd__dlygate4sd3_1
Xhold85 wbs_dat_i[14] vssd1 vssd1 vccd1 vccd1 hold85/X sky130_fd_sc_hd__dlygate4sd3_1
XFILLER_0_26_415 vssd1 vssd1 vccd1 vccd1 sky130_fd_sc_hd__decap_4
XFILLER_0_34_481 vssd1 vssd1 vccd1 vccd1 sky130_fd_sc_hd__decap_4
XANTENNA__0428__S1 _0811_/A vssd1 vssd1 vccd1 vccd1 sky130_fd_sc_hd__diode_2
XTAP_348 vssd1 vccd1 sky130_fd_sc_hd__tapvpwrvgnd_1
XTAP_337 vssd1 vccd1 sky130_fd_sc_hd__tapvpwrvgnd_1
XTAP_326 vssd1 vccd1 sky130_fd_sc_hd__tapvpwrvgnd_1
XTAP_315 vssd1 vccd1 sky130_fd_sc_hd__tapvpwrvgnd_1
XTAP_304 vssd1 vccd1 sky130_fd_sc_hd__tapvpwrvgnd_1
X_0521_ _0520_/X _0519_/X _0545_/S vssd1 vssd1 vccd1 vccd1 _0522_/B sky130_fd_sc_hd__mux2_1
X_0452_ _1049_/Q _1017_/Q _0985_/Q _0918_/Q _0552_/S0 _0811_/A vssd1 vssd1 vccd1 vccd1
+ _0452_/X sky130_fd_sc_hd__mux4_1
XTAP_359 vssd1 vccd1 sky130_fd_sc_hd__tapvpwrvgnd_1
XFILLER_0_16_62 vssd1 vssd1 vccd1 vccd1 sky130_fd_sc_hd__decap_8
XANTENNA__0497__S _0545_/S vssd1 vssd1 vccd1 vccd1 sky130_fd_sc_hd__diode_2
XANTENNA__1010__CLK _1106_/CLK vssd1 vssd1 vccd1 vccd1 sky130_fd_sc_hd__diode_2
X_1004_ _1106_/CLK _1004_/D vssd1 vssd1 vccd1 vccd1 _1004_/Q sky130_fd_sc_hd__dfxtp_1
XFILLER_0_32_83 vssd1 vssd1 vccd1 vccd1 sky130_fd_sc_hd__fill_1
XFILLER_0_29_242 vssd1 vssd1 vccd1 vccd1 sky130_fd_sc_hd__fill_1
XANTENNA__0526__A _0526_/A vssd1 vssd1 vccd1 vccd1 sky130_fd_sc_hd__diode_2
Xhold500 _0937_/Q vssd1 vssd1 vccd1 vccd1 hold500/X sky130_fd_sc_hd__dlygate4sd3_1
Xhold544 _0704_/X vssd1 vssd1 vccd1 vccd1 _0981_/D sky130_fd_sc_hd__dlygate4sd3_1
XFILLER_0_32_429 vssd1 vssd1 vccd1 vccd1 sky130_ef_sc_hd__decap_12
Xhold522 _0786_/X vssd1 vssd1 vccd1 vccd1 _1061_/D sky130_fd_sc_hd__dlygate4sd3_1
XFILLER_0_32_94 vssd1 vssd1 vccd1 vccd1 sky130_fd_sc_hd__fill_1
Xhold533 _1085_/Q vssd1 vssd1 vccd1 vccd1 hold533/X sky130_fd_sc_hd__dlygate4sd3_1
Xhold511 input57/X vssd1 vssd1 vccd1 vccd1 hold511/X sky130_fd_sc_hd__clkbuf_2
XFILLER_0_4_375 vssd1 vssd1 vccd1 vccd1 sky130_fd_sc_hd__fill_2
Xhold577 _0874_/Q vssd1 vssd1 vccd1 vccd1 hold577/X sky130_fd_sc_hd__dlygate4sd3_1
Xhold566 _0870_/Q vssd1 vssd1 vccd1 vccd1 hold566/X sky130_fd_sc_hd__dlygate4sd3_1
Xhold588 _0954_/Q vssd1 vssd1 vccd1 vccd1 hold588/X sky130_fd_sc_hd__dlygate4sd3_1
XANTENNA__0878__CLK _1112_/CLK vssd1 vssd1 vccd1 vccd1 sky130_fd_sc_hd__diode_2
XFILLER_0_12_197 vssd1 vssd1 vccd1 vccd1 sky130_ef_sc_hd__decap_12
Xhold555 _0734_/D vssd1 vssd1 vccd1 vccd1 _0801_/B sky130_fd_sc_hd__dlygate4sd3_1
X_0719_ hold73/X hold31/X _0731_/S vssd1 vssd1 vccd1 vccd1 hold74/A sky130_fd_sc_hd__mux2_1
XFILLER_0_23_407 vssd1 vssd1 vccd1 vccd1 sky130_fd_sc_hd__fill_1
Xoutput75 _0486_/X vssd1 vssd1 vccd1 vccd1 wbs_dat_o[14] sky130_fd_sc_hd__buf_12
Xoutput86 _0526_/X vssd1 vssd1 vccd1 vccd1 wbs_dat_o[24] sky130_fd_sc_hd__buf_12
Xoutput97 _0450_/X vssd1 vssd1 vccd1 vccd1 wbs_dat_o[5] sky130_fd_sc_hd__buf_12
XANTENNA__1033__CLK _1106_/CLK vssd1 vssd1 vccd1 vccd1 sky130_fd_sc_hd__diode_2
XANTENNA__0780__S _0782_/S vssd1 vssd1 vccd1 vccd1 sky130_fd_sc_hd__diode_2
XFILLER_0_26_267 vssd1 vssd1 vccd1 vccd1 sky130_fd_sc_hd__fill_1
XFILLER_0_26_234 vssd1 vssd1 vccd1 vccd1 sky130_fd_sc_hd__decap_8
XFILLER_0_14_418 vssd1 vssd1 vccd1 vccd1 sky130_fd_sc_hd__fill_2
X_0504_ _1062_/Q _1030_/Q _0998_/Q _0931_/Q _0512_/S0 _0512_/S1 vssd1 vssd1 vccd1
+ vccd1 _0504_/X sky130_fd_sc_hd__mux4_1
X_0435_ _0882_/Q _1115_/Q _1083_/Q _0949_/Q _0808_/A _0811_/A vssd1 vssd1 vccd1 vccd1
+ _0435_/X sky130_fd_sc_hd__mux4_1
XFILLER_0_22_473 vssd1 vssd1 vccd1 vccd1 sky130_fd_sc_hd__decap_3
XTAP_112 vssd1 vccd1 sky130_fd_sc_hd__tapvpwrvgnd_1
XTAP_101 vssd1 vccd1 sky130_fd_sc_hd__tapvpwrvgnd_1
XTAP_123 vssd1 vccd1 sky130_fd_sc_hd__tapvpwrvgnd_1
XTAP_134 vssd1 vccd1 sky130_fd_sc_hd__tapvpwrvgnd_1
XTAP_145 vssd1 vccd1 sky130_fd_sc_hd__tapvpwrvgnd_1
XTAP_156 vssd1 vccd1 sky130_fd_sc_hd__tapvpwrvgnd_1
XTAP_167 vssd1 vccd1 sky130_fd_sc_hd__tapvpwrvgnd_1
XTAP_178 vssd1 vccd1 sky130_fd_sc_hd__tapvpwrvgnd_1
XTAP_189 vssd1 vccd1 sky130_fd_sc_hd__tapvpwrvgnd_1
XFILLER_0_10_624 vssd1 vssd1 vccd1 vccd1 sky130_fd_sc_hd__fill_1
XFILLER_0_17_289 vssd1 vssd1 vccd1 vccd1 sky130_fd_sc_hd__decap_6
XANTENNA__0690__S _0699_/S vssd1 vssd1 vccd1 vccd1 sky130_fd_sc_hd__diode_2
XFILLER_0_9_478 vssd1 vssd1 vccd1 vccd1 sky130_fd_sc_hd__fill_2
Xhold352 _0902_/Q vssd1 vssd1 vccd1 vccd1 hold352/X sky130_fd_sc_hd__dlygate4sd3_1
Xhold363 _1103_/Q vssd1 vssd1 vccd1 vccd1 hold363/X sky130_fd_sc_hd__dlygate4sd3_1
Xhold330 _0846_/X vssd1 vssd1 vccd1 vccd1 _1111_/D sky130_fd_sc_hd__dlygate4sd3_1
Xhold374 _0829_/X vssd1 vssd1 vccd1 vccd1 _1094_/D sky130_fd_sc_hd__dlygate4sd3_1
Xhold385 _0918_/Q vssd1 vssd1 vccd1 vccd1 hold385/X sky130_fd_sc_hd__dlygate4sd3_1
XFILLER_0_13_462 vssd1 vssd1 vccd1 vccd1 sky130_fd_sc_hd__decap_3
Xhold341 wbs_dat_i[13] vssd1 vssd1 vccd1 vccd1 input39/A sky130_fd_sc_hd__dlygate4sd3_1
XFILLER_0_4_150 vssd1 vssd1 vccd1 vccd1 sky130_fd_sc_hd__fill_2
Xhold396 _0953_/Q vssd1 vssd1 vccd1 vccd1 hold396/X sky130_fd_sc_hd__dlygate4sd3_1
XANTENNA__1056__CLK _1103_/CLK vssd1 vssd1 vccd1 vccd1 sky130_fd_sc_hd__diode_2
XANTENNA__0500__S0 _0512_/S0 vssd1 vssd1 vccd1 vccd1 sky130_fd_sc_hd__diode_2
XFILLER_0_31_281 vssd1 vssd1 vccd1 vccd1 sky130_fd_sc_hd__decap_3
XANTENNA__0775__S _0782_/S vssd1 vssd1 vccd1 vccd1 sky130_fd_sc_hd__diode_2
XFILLER_0_13_85 vssd1 vssd1 vccd1 vccd1 sky130_fd_sc_hd__fill_2
X_0984_ _1119_/CLK _0984_/D vssd1 vssd1 vccd1 vccd1 _0984_/Q sky130_fd_sc_hd__dfxtp_1
XFILLER_0_22_281 vssd1 vssd1 vccd1 vccd1 sky130_ef_sc_hd__decap_12
XFILLER_0_10_421 vssd1 vssd1 vccd1 vccd1 sky130_fd_sc_hd__fill_2
XANTENNA__0685__S _0699_/S vssd1 vssd1 vccd1 vccd1 sky130_fd_sc_hd__diode_2
Xfanout128 _0552_/S0 vssd1 vssd1 vccd1 vccd1 _0548_/S0 sky130_fd_sc_hd__buf_6
Xfanout117 _0576_/S vssd1 vssd1 vccd1 vccd1 _0860_/S sky130_fd_sc_hd__buf_8
X_0418_ _0418_/A _0418_/B _0418_/C _0418_/D vssd1 vssd1 vccd1 vccd1 _0421_/B sky130_fd_sc_hd__or4_1
Xfanout106 _0782_/S vssd1 vssd1 vccd1 vccd1 _0798_/S sky130_fd_sc_hd__buf_8
XFILLER_0_18_565 vssd1 vssd1 vccd1 vccd1 sky130_fd_sc_hd__decap_8
XFILLER_0_5_470 vssd1 vssd1 vccd1 vccd1 sky130_fd_sc_hd__fill_2
Xhold193 _0932_/Q vssd1 vssd1 vccd1 vccd1 hold193/X sky130_fd_sc_hd__dlygate4sd3_1
Xhold171 _0568_/X vssd1 vssd1 vccd1 vccd1 _0871_/D sky130_fd_sc_hd__dlygate4sd3_1
Xhold160 _0692_/X vssd1 vssd1 vccd1 vccd1 _0970_/D sky130_fd_sc_hd__dlygate4sd3_1
XFILLER_0_13_281 vssd1 vssd1 vccd1 vccd1 sky130_fd_sc_hd__decap_4
Xhold182 _1044_/Q vssd1 vssd1 vccd1 vccd1 hold182/X sky130_fd_sc_hd__dlygate4sd3_1
XFILLER_0_34_29 vssd1 vssd1 vccd1 vccd1 sky130_fd_sc_hd__decap_4
XANTENNA__0595__S _0609_/S vssd1 vssd1 vccd1 vccd1 sky130_fd_sc_hd__diode_2
XFILLER_0_11_207 vssd1 vssd1 vccd1 vccd1 sky130_ef_sc_hd__decap_12
XANTENNA__0939__CLK _1104_/CLK vssd1 vssd1 vccd1 vccd1 sky130_fd_sc_hd__diode_2
XFILLER_0_24_62 vssd1 vssd1 vccd1 vccd1 sky130_fd_sc_hd__fill_2
XFILLER_0_19_307 vssd1 vssd1 vccd1 vccd1 sky130_fd_sc_hd__decap_4
XFILLER_0_27_362 vssd1 vssd1 vccd1 vccd1 sky130_ef_sc_hd__decap_12
X_0967_ _1104_/CLK _0967_/D vssd1 vssd1 vccd1 vccd1 _0967_/Q sky130_fd_sc_hd__dfxtp_1
XFILLER_0_15_579 vssd1 vssd1 vccd1 vccd1 sky130_fd_sc_hd__fill_1
XFILLER_0_6_201 vssd1 vssd1 vccd1 vccd1 sky130_fd_sc_hd__decap_3
XFILLER_0_6_223 vssd1 vssd1 vccd1 vccd1 sky130_fd_sc_hd__decap_3
XFILLER_0_6_245 vssd1 vssd1 vccd1 vccd1 sky130_fd_sc_hd__decap_4
XANTENNA__0534__A _0554_/A vssd1 vssd1 vccd1 vccd1 sky130_fd_sc_hd__diode_2
X_0898_ _1103_/CLK _0898_/D vssd1 vssd1 vccd1 vccd1 _0898_/Q sky130_fd_sc_hd__dfxtp_1
XFILLER_0_4_94 vssd1 vssd1 vccd1 vccd1 sky130_fd_sc_hd__fill_2
XFILLER_0_18_362 vssd1 vssd1 vccd1 vccd1 sky130_fd_sc_hd__fill_2
XFILLER_0_18_384 vssd1 vssd1 vccd1 vccd1 sky130_fd_sc_hd__fill_2
XFILLER_0_18_373 vssd1 vssd1 vccd1 vccd1 sky130_fd_sc_hd__decap_3
X_0821_ hold195/X hold104/X _0838_/S vssd1 vssd1 vccd1 vccd1 _0821_/X sky130_fd_sc_hd__mux2_1
X_0752_ hold31/X hold567/X _0765_/S vssd1 vssd1 vccd1 vccd1 hold32/A sky130_fd_sc_hd__mux2_1
X_0683_ hold86/X hold88/X _0699_/S vssd1 vssd1 vccd1 vccd1 hold89/A sky130_fd_sc_hd__mux2_1
XFILLER_0_35_50 vssd1 vssd1 vccd1 vccd1 sky130_fd_sc_hd__fill_2
XFILLER_0_19_73 vssd1 vssd1 vccd1 vccd1 sky130_fd_sc_hd__fill_2
XFILLER_0_35_83 vssd1 vssd1 vccd1 vccd1 sky130_fd_sc_hd__fill_1
X_1097_ _1103_/CLK _1097_/D vssd1 vssd1 vccd1 vccd1 _1097_/Q sky130_fd_sc_hd__dfxtp_1
XFILLER_0_33_173 vssd1 vssd1 vccd1 vccd1 sky130_fd_sc_hd__fill_1
XFILLER_0_21_379 vssd1 vssd1 vccd1 vccd1 sky130_fd_sc_hd__decap_4
XFILLER_0_21_302 vssd1 vssd1 vccd1 vccd1 sky130_fd_sc_hd__decap_4
X_1020_ _1125_/CLK _1020_/D vssd1 vssd1 vccd1 vccd1 _1020_/Q sky130_fd_sc_hd__dfxtp_1
XANTENNA__0783__S _0798_/S vssd1 vssd1 vccd1 vccd1 sky130_fd_sc_hd__diode_2
XFILLER_0_8_318 vssd1 vssd1 vccd1 vccd1 sky130_fd_sc_hd__fill_1
X_0735_ hold378/X hold564/X _0749_/S vssd1 vssd1 vccd1 vccd1 _0735_/X sky130_fd_sc_hd__mux2_1
XFILLER_0_21_96 vssd1 vssd1 vccd1 vccd1 sky130_fd_sc_hd__fill_1
XFILLER_0_12_302 vssd1 vssd1 vccd1 vccd1 sky130_fd_sc_hd__decap_4
X_0804_ _0804_/A _0804_/B vssd1 vssd1 vccd1 vccd1 _0804_/Y sky130_fd_sc_hd__nand2_1
X_0597_ hold562/X hold406/X _0609_/S vssd1 vssd1 vccd1 vccd1 _0597_/X sky130_fd_sc_hd__mux2_1
X_0666_ _0661_/D _0665_/A _0665_/B vssd1 vssd1 vccd1 vccd1 _0666_/X sky130_fd_sc_hd__a21o_1
XFILLER_0_12_357 vssd1 vssd1 vccd1 vccd1 sky130_fd_sc_hd__decap_4
XFILLER_0_27_3 vssd1 vssd1 vccd1 vccd1 sky130_ef_sc_hd__decap_12
XFILLER_0_1_73 vssd1 vssd1 vccd1 vccd1 sky130_fd_sc_hd__fill_1
XANTENNA__0693__S _0699_/S vssd1 vssd1 vccd1 vccd1 sky130_fd_sc_hd__diode_2
XFILLER_0_35_449 vssd1 vssd1 vccd1 vccd1 sky130_fd_sc_hd__decap_3
XFILLER_0_1_95 vssd1 vssd1 vccd1 vccd1 sky130_fd_sc_hd__fill_1
XFILLER_0_30_176 vssd1 vssd1 vccd1 vccd1 sky130_fd_sc_hd__fill_1
Xhold97 hold97/A vssd1 vssd1 vccd1 vccd1 hold97/X sky130_fd_sc_hd__dlygate4sd3_1
Xhold42 hold42/A vssd1 vssd1 vccd1 vccd1 hold42/X sky130_fd_sc_hd__dlygate4sd3_1
Xhold64 hold64/A vssd1 vssd1 vccd1 vccd1 hold64/X sky130_fd_sc_hd__dlygate4sd3_1
Xhold20 hold20/A vssd1 vssd1 vccd1 vccd1 hold20/X sky130_fd_sc_hd__clkbuf_2
Xhold31 hold31/A vssd1 vssd1 vccd1 vccd1 hold31/X sky130_fd_sc_hd__clkbuf_2
Xhold86 hold86/A vssd1 vssd1 vccd1 vccd1 hold86/X sky130_fd_sc_hd__clkbuf_2
Xhold53 hold53/A vssd1 vssd1 vccd1 vccd1 hold53/X sky130_fd_sc_hd__dlygate4sd3_1
Xhold75 hold75/A vssd1 vssd1 vccd1 vccd1 hold75/X sky130_fd_sc_hd__dlygate4sd3_1
XFILLER_0_21_121 vssd1 vssd1 vccd1 vccd1 sky130_fd_sc_hd__fill_2
XTAP_349 vssd1 vccd1 sky130_fd_sc_hd__tapvpwrvgnd_1
XTAP_338 vssd1 vccd1 sky130_fd_sc_hd__tapvpwrvgnd_1
XTAP_327 vssd1 vccd1 sky130_fd_sc_hd__tapvpwrvgnd_1
XTAP_316 vssd1 vccd1 sky130_fd_sc_hd__tapvpwrvgnd_1
XFILLER_0_21_154 vssd1 vssd1 vccd1 vccd1 sky130_fd_sc_hd__fill_2
X_0520_ _1066_/Q _1034_/Q _1002_/Q _0935_/Q _0548_/S0 _0552_/S1 vssd1 vssd1 vccd1
+ vccd1 _0520_/X sky130_fd_sc_hd__mux4_1
XTAP_305 vssd1 vccd1 sky130_fd_sc_hd__tapvpwrvgnd_1
X_0451_ _0886_/Q _1119_/Q _1087_/Q _0953_/Q _0808_/A _0811_/A vssd1 vssd1 vccd1 vccd1
+ _0451_/X sky130_fd_sc_hd__mux4_1
XFILLER_0_6_29 vssd1 vssd1 vccd1 vccd1 sky130_fd_sc_hd__decap_4
XANTENNA__0778__S _0782_/S vssd1 vssd1 vccd1 vccd1 sky130_fd_sc_hd__diode_2
X_1003_ _1105_/CLK hold82/X vssd1 vssd1 vccd1 vccd1 hold81/A sky130_fd_sc_hd__dfxtp_1
XFILLER_0_17_405 vssd1 vssd1 vccd1 vccd1 sky130_fd_sc_hd__decap_8
Xhold523 _1010_/Q vssd1 vssd1 vccd1 vccd1 hold523/X sky130_fd_sc_hd__dlygate4sd3_1
Xhold501 _0639_/X vssd1 vssd1 vccd1 vccd1 _0937_/D sky130_fd_sc_hd__dlygate4sd3_1
Xhold512 _0770_/X vssd1 vssd1 vccd1 vccd1 _1045_/D sky130_fd_sc_hd__dlygate4sd3_1
Xhold534 _0820_/X vssd1 vssd1 vccd1 vccd1 _1085_/D sky130_fd_sc_hd__dlygate4sd3_1
XFILLER_0_25_482 vssd1 vssd1 vccd1 vccd1 sky130_ef_sc_hd__decap_12
X_0718_ hold327/X hold269/X _0731_/S vssd1 vssd1 vccd1 vccd1 _0718_/X sky130_fd_sc_hd__mux2_1
Xhold545 _0944_/Q vssd1 vssd1 vccd1 vccd1 _0806_/B sky130_fd_sc_hd__dlygate4sd3_1
XFILLER_0_13_611 vssd1 vssd1 vccd1 vccd1 sky130_fd_sc_hd__fill_2
XFILLER_0_4_321 vssd1 vssd1 vccd1 vccd1 sky130_fd_sc_hd__decap_3
XFILLER_0_4_365 vssd1 vssd1 vccd1 vccd1 sky130_fd_sc_hd__decap_3
XFILLER_0_4_398 vssd1 vssd1 vccd1 vccd1 sky130_fd_sc_hd__fill_2
Xhold578 _1035_/Q vssd1 vssd1 vccd1 vccd1 hold578/X sky130_fd_sc_hd__dlygate4sd3_1
Xhold556 _0801_/X vssd1 vssd1 vccd1 vccd1 _1075_/D sky130_fd_sc_hd__dlygate4sd3_1
XANTENNA__0542__A _0554_/A vssd1 vssd1 vccd1 vccd1 sky130_fd_sc_hd__diode_2
Xhold567 _1028_/Q vssd1 vssd1 vccd1 vccd1 hold567/X sky130_fd_sc_hd__dlygate4sd3_1
XANTENNA__0688__S _0699_/S vssd1 vssd1 vccd1 vccd1 sky130_fd_sc_hd__diode_2
Xhold589 _0968_/Q vssd1 vssd1 vccd1 vccd1 hold589/X sky130_fd_sc_hd__dlygate4sd3_1
X_0649_ _0811_/A _1076_/Q vssd1 vssd1 vccd1 vccd1 _0649_/X sky130_fd_sc_hd__and2b_1
XFILLER_0_35_279 vssd1 vssd1 vccd1 vccd1 sky130_fd_sc_hd__fill_1
XFILLER_0_16_493 vssd1 vssd1 vccd1 vccd1 sky130_fd_sc_hd__fill_2
XFILLER_0_16_460 vssd1 vssd1 vccd1 vccd1 sky130_fd_sc_hd__fill_2