* NGSPICE file created from wishbone_nn.ext - technology: sky130A

* Black-box entry subcircuit for sky130_fd_sc_hd__diode_2 abstract view
.subckt sky130_fd_sc_hd__diode_2 DIODE VGND VNB VPB VPWR
.ends

* Black-box entry subcircuit for sky130_fd_sc_hd__tapvpwrvgnd_1 abstract view
.subckt sky130_fd_sc_hd__tapvpwrvgnd_1 VGND VPWR
.ends

* Black-box entry subcircuit for sky130_fd_sc_hd__fill_1 abstract view
.subckt sky130_fd_sc_hd__fill_1 VGND VNB VPB VPWR
.ends

* Black-box entry subcircuit for sky130_fd_sc_hd__fill_2 abstract view
.subckt sky130_fd_sc_hd__fill_2 VGND VNB VPB VPWR
.ends

* Black-box entry subcircuit for sky130_fd_sc_hd__decap_8 abstract view
.subckt sky130_fd_sc_hd__decap_8 VGND VNB VPB VPWR
.ends

* Black-box entry subcircuit for sky130_ef_sc_hd__decap_12 abstract view
.subckt sky130_ef_sc_hd__decap_12 VGND VNB VPB VPWR
.ends

* Black-box entry subcircuit for sky130_fd_sc_hd__dlygate4sd3_1 abstract view
.subckt sky130_fd_sc_hd__dlygate4sd3_1 A VGND VNB VPB VPWR X
.ends

* Black-box entry subcircuit for sky130_fd_sc_hd__decap_6 abstract view
.subckt sky130_fd_sc_hd__decap_6 VGND VNB VPB VPWR
.ends

* Black-box entry subcircuit for sky130_fd_sc_hd__decap_3 abstract view
.subckt sky130_fd_sc_hd__decap_3 VGND VNB VPB VPWR
.ends

* Black-box entry subcircuit for sky130_fd_sc_hd__dfxtp_1 abstract view
.subckt sky130_fd_sc_hd__dfxtp_1 CLK D VGND VNB VPB VPWR Q
.ends

* Black-box entry subcircuit for sky130_fd_sc_hd__buf_4 abstract view
.subckt sky130_fd_sc_hd__buf_4 A VGND VNB VPB VPWR X
.ends

* Black-box entry subcircuit for sky130_fd_sc_hd__or4_2 abstract view
.subckt sky130_fd_sc_hd__or4_2 A B C D VGND VNB VPB VPWR X
.ends

* Black-box entry subcircuit for sky130_fd_sc_hd__buf_8 abstract view
.subckt sky130_fd_sc_hd__buf_8 A VGND VNB VPB VPWR X
.ends

* Black-box entry subcircuit for sky130_fd_sc_hd__decap_4 abstract view
.subckt sky130_fd_sc_hd__decap_4 VGND VNB VPB VPWR
.ends

* Black-box entry subcircuit for sky130_fd_sc_hd__mux2_1 abstract view
.subckt sky130_fd_sc_hd__mux2_1 A0 A1 S VGND VNB VPB VPWR X
.ends

* Black-box entry subcircuit for sky130_fd_sc_hd__nand2b_1 abstract view
.subckt sky130_fd_sc_hd__nand2b_1 A_N B VGND VNB VPB VPWR Y
.ends

* Black-box entry subcircuit for sky130_fd_sc_hd__nor2_1 abstract view
.subckt sky130_fd_sc_hd__nor2_1 A B VGND VNB VPB VPWR Y
.ends

* Black-box entry subcircuit for sky130_fd_sc_hd__clkbuf_2 abstract view
.subckt sky130_fd_sc_hd__clkbuf_2 A VGND VNB VPB VPWR X
.ends

* Black-box entry subcircuit for sky130_fd_sc_hd__clkbuf_16 abstract view
.subckt sky130_fd_sc_hd__clkbuf_16 A VGND VNB VPB VPWR X
.ends

* Black-box entry subcircuit for sky130_fd_sc_hd__mux4_1 abstract view
.subckt sky130_fd_sc_hd__mux4_1 A0 A1 A2 A3 S0 S1 VGND VNB VPB VPWR X
.ends

* Black-box entry subcircuit for sky130_fd_sc_hd__and2_1 abstract view
.subckt sky130_fd_sc_hd__and2_1 A B VGND VNB VPB VPWR X
.ends

* Black-box entry subcircuit for sky130_fd_sc_hd__buf_1 abstract view
.subckt sky130_fd_sc_hd__buf_1 A VGND VNB VPB VPWR X
.ends

* Black-box entry subcircuit for sky130_fd_sc_hd__buf_12 abstract view
.subckt sky130_fd_sc_hd__buf_12 A VGND VNB VPB VPWR X
.ends

* Black-box entry subcircuit for sky130_fd_sc_hd__buf_6 abstract view
.subckt sky130_fd_sc_hd__buf_6 A VGND VNB VPB VPWR X
.ends

* Black-box entry subcircuit for sky130_fd_sc_hd__or4_1 abstract view
.subckt sky130_fd_sc_hd__or4_1 A B C D VGND VNB VPB VPWR X
.ends

* Black-box entry subcircuit for sky130_fd_sc_hd__or4_4 abstract view
.subckt sky130_fd_sc_hd__or4_4 A B C D VGND VNB VPB VPWR X
.ends

* Black-box entry subcircuit for sky130_fd_sc_hd__and4b_2 abstract view
.subckt sky130_fd_sc_hd__and4b_2 A_N B C D VGND VNB VPB VPWR X
.ends

* Black-box entry subcircuit for sky130_fd_sc_hd__o211a_1 abstract view
.subckt sky130_fd_sc_hd__o211a_1 A1 A2 B1 C1 VGND VNB VPB VPWR X
.ends

* Black-box entry subcircuit for sky130_fd_sc_hd__and3b_1 abstract view
.subckt sky130_fd_sc_hd__and3b_1 A_N B C VGND VNB VPB VPWR X
.ends

* Black-box entry subcircuit for sky130_fd_sc_hd__nand2_1 abstract view
.subckt sky130_fd_sc_hd__nand2_1 A B VGND VNB VPB VPWR Y
.ends

* Black-box entry subcircuit for sky130_fd_sc_hd__or3_1 abstract view
.subckt sky130_fd_sc_hd__or3_1 A B C VGND VNB VPB VPWR X
.ends

* Black-box entry subcircuit for sky130_fd_sc_hd__nor3b_4 abstract view
.subckt sky130_fd_sc_hd__nor3b_4 A B C_N VGND VNB VPB VPWR Y
.ends

* Black-box entry subcircuit for sky130_fd_sc_hd__a21oi_1 abstract view
.subckt sky130_fd_sc_hd__a21oi_1 A1 A2 B1 VGND VNB VPB VPWR Y
.ends

* Black-box entry subcircuit for sky130_fd_sc_hd__dfxtp_2 abstract view
.subckt sky130_fd_sc_hd__dfxtp_2 CLK D VGND VNB VPB VPWR Q
.ends

* Black-box entry subcircuit for sky130_fd_sc_hd__or3_2 abstract view
.subckt sky130_fd_sc_hd__or3_2 A B C VGND VNB VPB VPWR X
.ends

* Black-box entry subcircuit for sky130_fd_sc_hd__dfxtp_4 abstract view
.subckt sky130_fd_sc_hd__dfxtp_4 CLK D VGND VNB VPB VPWR Q
.ends

* Black-box entry subcircuit for sky130_fd_sc_hd__or4bb_1 abstract view
.subckt sky130_fd_sc_hd__or4bb_1 A B C_N D_N VGND VNB VPB VPWR X
.ends

* Black-box entry subcircuit for sky130_fd_sc_hd__buf_2 abstract view
.subckt sky130_fd_sc_hd__buf_2 A VGND VNB VPB VPWR X
.ends

* Black-box entry subcircuit for sky130_fd_sc_hd__inv_2 abstract view
.subckt sky130_fd_sc_hd__inv_2 A VGND VNB VPB VPWR Y
.ends

* Black-box entry subcircuit for sky130_fd_sc_hd__or4b_4 abstract view
.subckt sky130_fd_sc_hd__or4b_4 A B C D_N VGND VNB VPB VPWR X
.ends

* Black-box entry subcircuit for sky130_fd_sc_hd__nand3_2 abstract view
.subckt sky130_fd_sc_hd__nand3_2 A B C VGND VNB VPB VPWR Y
.ends

* Black-box entry subcircuit for sky130_fd_sc_hd__clkbuf_4 abstract view
.subckt sky130_fd_sc_hd__clkbuf_4 A VGND VNB VPB VPWR X
.ends

* Black-box entry subcircuit for sky130_fd_sc_hd__clkbuf_1 abstract view
.subckt sky130_fd_sc_hd__clkbuf_1 A VGND VNB VPB VPWR X
.ends

* Black-box entry subcircuit for sky130_fd_sc_hd__o41a_2 abstract view
.subckt sky130_fd_sc_hd__o41a_2 A1 A2 A3 A4 B1 VGND VNB VPB VPWR X
.ends

* Black-box entry subcircuit for sky130_fd_sc_hd__or4bb_4 abstract view
.subckt sky130_fd_sc_hd__or4bb_4 A B C_N D_N VGND VNB VPB VPWR X
.ends

* Black-box entry subcircuit for sky130_fd_sc_hd__a211oi_1 abstract view
.subckt sky130_fd_sc_hd__a211oi_1 A1 A2 B1 C1 VGND VNB VPB VPWR Y
.ends

* Black-box entry subcircuit for sky130_fd_sc_hd__xnor2_1 abstract view
.subckt sky130_fd_sc_hd__xnor2_1 A B VGND VNB VPB VPWR Y
.ends

* Black-box entry subcircuit for sky130_fd_sc_hd__and3_2 abstract view
.subckt sky130_fd_sc_hd__and3_2 A B C VGND VNB VPB VPWR X
.ends

* Black-box entry subcircuit for sky130_fd_sc_hd__and3_1 abstract view
.subckt sky130_fd_sc_hd__and3_1 A B C VGND VNB VPB VPWR X
.ends

* Black-box entry subcircuit for sky130_fd_sc_hd__nor4_2 abstract view
.subckt sky130_fd_sc_hd__nor4_2 A B C D VGND VNB VPB VPWR Y
.ends

* Black-box entry subcircuit for sky130_fd_sc_hd__a21o_1 abstract view
.subckt sky130_fd_sc_hd__a21o_1 A1 A2 B1 VGND VNB VPB VPWR X
.ends

* Black-box entry subcircuit for sky130_fd_sc_hd__or2_1 abstract view
.subckt sky130_fd_sc_hd__or2_1 A B VGND VNB VPB VPWR X
.ends

* Black-box entry subcircuit for sky130_fd_sc_hd__nor4_1 abstract view
.subckt sky130_fd_sc_hd__nor4_1 A B C D VGND VNB VPB VPWR Y
.ends

* Black-box entry subcircuit for sky130_fd_sc_hd__or3b_1 abstract view
.subckt sky130_fd_sc_hd__or3b_1 A B C_N VGND VNB VPB VPWR X
.ends

* Black-box entry subcircuit for sky130_fd_sc_hd__a31o_1 abstract view
.subckt sky130_fd_sc_hd__a31o_1 A1 A2 A3 B1 VGND VNB VPB VPWR X
.ends

* Black-box entry subcircuit for sky130_fd_sc_hd__and3b_2 abstract view
.subckt sky130_fd_sc_hd__and3b_2 A_N B C VGND VNB VPB VPWR X
.ends

* Black-box entry subcircuit for sky130_fd_sc_hd__or2_4 abstract view
.subckt sky130_fd_sc_hd__or2_4 A B VGND VNB VPB VPWR X
.ends

* Black-box entry subcircuit for sky130_fd_sc_hd__and4b_1 abstract view
.subckt sky130_fd_sc_hd__and4b_1 A_N B C D VGND VNB VPB VPWR X
.ends

* Black-box entry subcircuit for sky130_fd_sc_hd__nand4_1 abstract view
.subckt sky130_fd_sc_hd__nand4_1 A B C D VGND VNB VPB VPWR Y
.ends

* Black-box entry subcircuit for sky130_fd_sc_hd__a21bo_1 abstract view
.subckt sky130_fd_sc_hd__a21bo_1 A1 A2 B1_N VGND VNB VPB VPWR X
.ends

* Black-box entry subcircuit for sky130_fd_sc_hd__dlymetal6s2s_1 abstract view
.subckt sky130_fd_sc_hd__dlymetal6s2s_1 A VGND VNB VPB VPWR X
.ends

* Black-box entry subcircuit for sky130_fd_sc_hd__clkbuf_8 abstract view
.subckt sky130_fd_sc_hd__clkbuf_8 A VGND VNB VPB VPWR X
.ends

* Black-box entry subcircuit for sky130_fd_sc_hd__nand3_1 abstract view
.subckt sky130_fd_sc_hd__nand3_1 A B C VGND VNB VPB VPWR Y
.ends

* Black-box entry subcircuit for sky130_fd_sc_hd__o21ai_1 abstract view
.subckt sky130_fd_sc_hd__o21ai_1 A1 A2 B1 VGND VNB VPB VPWR Y
.ends

* Black-box entry subcircuit for sky130_fd_sc_hd__o21a_1 abstract view
.subckt sky130_fd_sc_hd__o21a_1 A1 A2 B1 VGND VNB VPB VPWR X
.ends

.subckt wishbone_nn vccd1 vssd1 wb_clk_i wb_rst_i wbs_ack_o wbs_adr_i[0] wbs_adr_i[10]
+ wbs_adr_i[11] wbs_adr_i[12] wbs_adr_i[13] wbs_adr_i[14] wbs_adr_i[15] wbs_adr_i[16]
+ wbs_adr_i[17] wbs_adr_i[18] wbs_adr_i[19] wbs_adr_i[1] wbs_adr_i[20] wbs_adr_i[21]
+ wbs_adr_i[22] wbs_adr_i[23] wbs_adr_i[24] wbs_adr_i[25] wbs_adr_i[26] wbs_adr_i[27]
+ wbs_adr_i[28] wbs_adr_i[29] wbs_adr_i[2] wbs_adr_i[30] wbs_adr_i[31] wbs_adr_i[3]
+ wbs_adr_i[4] wbs_adr_i[5] wbs_adr_i[6] wbs_adr_i[7] wbs_adr_i[8] wbs_adr_i[9] wbs_cyc_i
+ wbs_dat_i[0] wbs_dat_i[10] wbs_dat_i[11] wbs_dat_i[12] wbs_dat_i[13] wbs_dat_i[14]
+ wbs_dat_i[15] wbs_dat_i[16] wbs_dat_i[17] wbs_dat_i[18] wbs_dat_i[19] wbs_dat_i[1]
+ wbs_dat_i[20] wbs_dat_i[21] wbs_dat_i[22] wbs_dat_i[23] wbs_dat_i[24] wbs_dat_i[25]
+ wbs_dat_i[26] wbs_dat_i[27] wbs_dat_i[28] wbs_dat_i[29] wbs_dat_i[2] wbs_dat_i[30]
+ wbs_dat_i[31] wbs_dat_i[3] wbs_dat_i[4] wbs_dat_i[5] wbs_dat_i[6] wbs_dat_i[7] wbs_dat_i[8]
+ wbs_dat_i[9] wbs_dat_o[0] wbs_dat_o[10] wbs_dat_o[11] wbs_dat_o[12] wbs_dat_o[13]
+ wbs_dat_o[14] wbs_dat_o[15] wbs_dat_o[16] wbs_dat_o[17] wbs_dat_o[18] wbs_dat_o[19]
+ wbs_dat_o[1] wbs_dat_o[20] wbs_dat_o[21] wbs_dat_o[22] wbs_dat_o[23] wbs_dat_o[24]
+ wbs_dat_o[25] wbs_dat_o[26] wbs_dat_o[27] wbs_dat_o[28] wbs_dat_o[29] wbs_dat_o[2]
+ wbs_dat_o[30] wbs_dat_o[31] wbs_dat_o[3] wbs_dat_o[4] wbs_dat_o[5] wbs_dat_o[6]
+ wbs_dat_o[7] wbs_dat_o[8] wbs_dat_o[9] wbs_sel_i[0] wbs_sel_i[1] wbs_sel_i[2] wbs_sel_i[3]
+ wbs_stb_i wbs_we_i
XANTENNA__0674__S _0682_/S vssd1 vssd1 vccd1 vccd1 sky130_fd_sc_hd__diode_2
XTAP_177 vssd1 vccd1 sky130_fd_sc_hd__tapvpwrvgnd_1
XTAP_188 vssd1 vccd1 sky130_fd_sc_hd__tapvpwrvgnd_1
XTAP_199 vssd1 vccd1 sky130_fd_sc_hd__tapvpwrvgnd_1
XFILLER_0_57_391 vssd1 vssd1 vccd1 vccd1 sky130_fd_sc_hd__fill_1
XFILLER_0_49_369 vssd1 vssd1 vccd1 vccd1 sky130_fd_sc_hd__fill_2
XFILLER_0_49_358 vssd1 vssd1 vccd1 vccd1 sky130_fd_sc_hd__decap_8
XFILLER_0_43_70 vssd1 vssd1 vccd1 vccd1 sky130_ef_sc_hd__decap_12
Xhold340 _0992_/Q vssd1 vssd1 vccd1 vccd1 hold340/X sky130_fd_sc_hd__dlygate4sd3_1
Xhold362 _1042_/Q vssd1 vssd1 vccd1 vccd1 hold362/X sky130_fd_sc_hd__dlygate4sd3_1
Xhold351 _0653_/X vssd1 vssd1 vccd1 vccd1 _0943_/D sky130_fd_sc_hd__dlygate4sd3_1
XANTENNA__0422__B _0424_/A vssd1 vssd1 vccd1 vccd1 sky130_fd_sc_hd__diode_2
XANTENNA__0849__S _0850_/S vssd1 vssd1 vccd1 vccd1 sky130_fd_sc_hd__diode_2
Xhold395 _0627_/X vssd1 vssd1 vccd1 vccd1 _0918_/D sky130_fd_sc_hd__dlygate4sd3_1
Xhold373 _0821_/X vssd1 vssd1 vccd1 vccd1 _1086_/D sky130_fd_sc_hd__dlygate4sd3_1
Xhold384 _0559_/X vssd1 vssd1 vccd1 vccd1 _0855_/D sky130_fd_sc_hd__dlygate4sd3_1
XANTENNA__0584__S _0597_/S vssd1 vssd1 vccd1 vccd1 sky130_fd_sc_hd__diode_2
XFILLER_0_63_361 vssd1 vssd1 vccd1 vccd1 sky130_ef_sc_hd__decap_12
XFILLER_0_23_214 vssd1 vssd1 vccd1 vccd1 sky130_fd_sc_hd__decap_8
XFILLER_0_48_37 vssd1 vssd1 vccd1 vccd1 sky130_fd_sc_hd__fill_2
XFILLER_0_48_15 vssd1 vssd1 vccd1 vccd1 sky130_ef_sc_hd__decap_12
XFILLER_0_64_69 vssd1 vssd1 vccd1 vccd1 sky130_ef_sc_hd__decap_12
XFILLER_0_58_177 vssd1 vssd1 vccd1 vccd1 sky130_ef_sc_hd__decap_12
XFILLER_0_58_133 vssd1 vssd1 vccd1 vccd1 sky130_fd_sc_hd__decap_6
XFILLER_0_46_317 vssd1 vssd1 vccd1 vccd1 sky130_fd_sc_hd__decap_3
X_0985_ _1017_/CLK _0985_/D vssd1 vssd1 vccd1 vccd1 _0985_/Q sky130_fd_sc_hd__dfxtp_1
Xfanout127 _1076_/Q vssd1 vssd1 vccd1 vccd1 _0546_/S1 sky130_fd_sc_hd__buf_4
X_0419_ _0419_/A _0419_/B _0419_/C _0419_/D vssd1 vssd1 vccd1 vccd1 _0424_/B sky130_fd_sc_hd__or4_2
XANTENNA__0669__S _0682_/S vssd1 vssd1 vccd1 vccd1 sky130_fd_sc_hd__diode_2
Xfanout116 _0850_/S vssd1 vssd1 vccd1 vccd1 _0580_/S sky130_fd_sc_hd__buf_8
Xfanout105 _0836_/S vssd1 vssd1 vccd1 vccd1 _0827_/S sky130_fd_sc_hd__buf_8
XFILLER_0_49_133 vssd1 vssd1 vccd1 vccd1 sky130_fd_sc_hd__decap_4
XFILLER_0_64_169 vssd1 vssd1 vccd1 vccd1 sky130_ef_sc_hd__decap_12
XFILLER_0_64_125 vssd1 vssd1 vccd1 vccd1 sky130_ef_sc_hd__decap_12
Xhold170 _0748_/X vssd1 vssd1 vccd1 vccd1 _1036_/D sky130_fd_sc_hd__dlygate4sd3_1
XANTENNA__0579__S _0580_/S vssd1 vssd1 vccd1 vccd1 sky130_fd_sc_hd__diode_2
Xhold192 _1025_/Q vssd1 vssd1 vccd1 vccd1 hold192/X sky130_fd_sc_hd__dlygate4sd3_1
Xhold181 _0634_/X vssd1 vssd1 vccd1 vccd1 _0925_/D sky130_fd_sc_hd__dlygate4sd3_1
XFILLER_0_18_29 vssd1 vssd1 vccd1 vccd1 sky130_fd_sc_hd__decap_3
XFILLER_0_55_125 vssd1 vssd1 vccd1 vccd1 sky130_fd_sc_hd__decap_8
XFILLER_0_50_27 vssd1 vssd1 vccd1 vccd1 sky130_fd_sc_hd__fill_1
XFILLER_0_28_306 vssd1 vssd1 vccd1 vccd1 sky130_fd_sc_hd__fill_2
XFILLER_0_55_169 vssd1 vssd1 vccd1 vccd1 sky130_ef_sc_hd__decap_12
XFILLER_0_36_361 vssd1 vssd1 vccd1 vccd1 sky130_fd_sc_hd__decap_3
X_0770_ hold512/X hold590/X _0778_/S vssd1 vssd1 vccd1 vccd1 _0770_/X sky130_fd_sc_hd__mux2_1
XFILLER_0_59_69 vssd1 vssd1 vccd1 vccd1 sky130_ef_sc_hd__decap_12
XANTENNA_clkbuf_leaf_4_wb_clk_i_A clkbuf_leaf_8_wb_clk_i/A vssd1 vssd1 vccd1 vccd1
+ sky130_fd_sc_hd__diode_2
XFILLER_0_19_306 vssd1 vssd1 vccd1 vccd1 sky130_fd_sc_hd__decap_4
XFILLER_0_34_309 vssd1 vssd1 vccd1 vccd1 sky130_fd_sc_hd__decap_3
XFILLER_0_24_83 vssd1 vssd1 vccd1 vccd1 sky130_fd_sc_hd__fill_1
X_0968_ _1104_/CLK hold30/X vssd1 vssd1 vccd1 vccd1 hold29/A sky130_fd_sc_hd__dfxtp_1
XANTENNA_fanout125_A _0546_/S1 vssd1 vssd1 vccd1 vccd1 sky130_fd_sc_hd__diode_2
X_0899_ _1100_/CLK _0899_/D vssd1 vssd1 vccd1 vccd1 _0899_/Q sky130_fd_sc_hd__dfxtp_1
XFILLER_0_33_386 vssd1 vssd1 vccd1 vccd1 sky130_fd_sc_hd__decap_6
XFILLER_0_20_19 vssd1 vssd1 vccd1 vccd1 sky130_fd_sc_hd__fill_1
XANTENNA__0482__S1 _0482_/S1 vssd1 vssd1 vccd1 vccd1 sky130_fd_sc_hd__diode_2
XFILLER_0_61_15 vssd1 vssd1 vccd1 vccd1 sky130_ef_sc_hd__decap_12
XFILLER_0_56_401 vssd1 vssd1 vccd1 vccd1 sky130_fd_sc_hd__decap_6
X_0822_ hold411/X hold394/X _0827_/S vssd1 vssd1 vccd1 vccd1 _0822_/X sky130_fd_sc_hd__mux2_1
XANTENNA__0772__S _0778_/S vssd1 vssd1 vccd1 vccd1 sky130_fd_sc_hd__diode_2
XFILLER_0_9_49 vssd1 vssd1 vccd1 vccd1 sky130_fd_sc_hd__decap_6
XFILLER_0_16_309 vssd1 vssd1 vccd1 vccd1 sky130_fd_sc_hd__decap_6
X_0684_ hold432/X hold463/X _0698_/S vssd1 vssd1 vccd1 vccd1 _0684_/X sky130_fd_sc_hd__mux2_1
XFILLER_0_24_386 vssd1 vssd1 vccd1 vccd1 sky130_ef_sc_hd__decap_12
XFILLER_0_24_353 vssd1 vssd1 vccd1 vccd1 sky130_fd_sc_hd__decap_3
X_0753_ _0802_/B _0759_/B vssd1 vssd1 vccd1 vccd1 _0755_/C sky130_fd_sc_hd__nand2b_1
XFILLER_0_10_41 vssd1 vssd1 vccd1 vccd1 sky130_ef_sc_hd__decap_12
XANTENNA__0473__S1 _0809_/B vssd1 vssd1 vccd1 vccd1 sky130_fd_sc_hd__diode_2
XFILLER_0_59_261 vssd1 vssd1 vccd1 vccd1 sky130_ef_sc_hd__decap_12
XFILLER_0_47_401 vssd1 vssd1 vccd1 vccd1 sky130_fd_sc_hd__decap_6
XANTENNA__0682__S _0682_/S vssd1 vssd1 vccd1 vccd1 sky130_fd_sc_hd__diode_2
X_1098_ _1098_/CLK hold99/X vssd1 vssd1 vccd1 vccd1 hold98/A sky130_fd_sc_hd__dfxtp_1
XFILLER_0_19_169 vssd1 vssd1 vccd1 vccd1 sky130_fd_sc_hd__decap_3
XANTENNA__0592__S _0597_/S vssd1 vssd1 vccd1 vccd1 sky130_fd_sc_hd__diode_2
XTAP_507 vssd1 vccd1 sky130_fd_sc_hd__tapvpwrvgnd_1
XTAP_529 vssd1 vccd1 sky130_fd_sc_hd__tapvpwrvgnd_1
XFILLER_0_56_15 vssd1 vssd1 vccd1 vccd1 sky130_ef_sc_hd__decap_12
XTAP_518 vssd1 vccd1 sky130_fd_sc_hd__tapvpwrvgnd_1
XANTENNA__0767__S _0778_/S vssd1 vssd1 vccd1 vccd1 sky130_fd_sc_hd__diode_2
X_1021_ _1096_/CLK hold28/X vssd1 vssd1 vccd1 vccd1 hold27/A sky130_fd_sc_hd__dfxtp_1
XFILLER_0_56_253 vssd1 vssd1 vccd1 vccd1 sky130_ef_sc_hd__decap_12
XFILLER_0_31_109 vssd1 vssd1 vccd1 vccd1 sky130_fd_sc_hd__fill_1
X_0805_ input1/X _0809_/C vssd1 vssd1 vccd1 vccd1 _0805_/Y sky130_fd_sc_hd__nor2_1
X_0736_ hold358/X hold267/X _0748_/S vssd1 vssd1 vccd1 vccd1 _0736_/X sky130_fd_sc_hd__mux2_1
X_0598_ hold245/X hold195/X _0614_/S vssd1 vssd1 vccd1 vccd1 _0598_/X sky130_fd_sc_hd__mux2_1
XFILLER_0_24_194 vssd1 vssd1 vccd1 vccd1 sky130_fd_sc_hd__fill_2
X_0667_ hold43/X hold23/X _0682_/S vssd1 vssd1 vccd1 vccd1 hold44/A sky130_fd_sc_hd__mux2_1
XANTENNA__0446__S1 _0809_/B vssd1 vssd1 vccd1 vccd1 sky130_fd_sc_hd__diode_2
XFILLER_0_46_81 vssd1 vssd1 vccd1 vccd1 sky130_fd_sc_hd__decap_3
XFILLER_0_34_3 vssd1 vssd1 vccd1 vccd1 sky130_ef_sc_hd__decap_12
XANTENNA__0677__S _0682_/S vssd1 vssd1 vccd1 vccd1 sky130_fd_sc_hd__diode_2
XFILLER_0_47_297 vssd1 vssd1 vccd1 vccd1 sky130_fd_sc_hd__fill_1
XFILLER_0_47_264 vssd1 vssd1 vccd1 vccd1 sky130_fd_sc_hd__fill_2
XFILLER_0_39_209 vssd1 vssd1 vccd1 vccd1 sky130_ef_sc_hd__decap_12
XFILLER_0_62_289 vssd1 vssd1 vccd1 vccd1 sky130_ef_sc_hd__decap_12
XFILLER_0_62_245 vssd1 vssd1 vccd1 vccd1 sky130_fd_sc_hd__decap_6
XANTENNA__0437__S1 _0482_/S1 vssd1 vssd1 vccd1 vccd1 sky130_fd_sc_hd__diode_2
XFILLER_0_30_153 vssd1 vssd1 vccd1 vccd1 sky130_ef_sc_hd__decap_12
XANTENNA__0587__S _0597_/S vssd1 vssd1 vccd1 vccd1 sky130_fd_sc_hd__diode_2
XFILLER_0_30_197 vssd1 vssd1 vccd1 vccd1 sky130_fd_sc_hd__decap_8
XFILLER_0_30_175 vssd1 vssd1 vccd1 vccd1 sky130_fd_sc_hd__fill_1
Xhold74 hold74/A vssd1 vssd1 vccd1 vccd1 hold74/X sky130_fd_sc_hd__dlygate4sd3_1
Xhold52 hold52/A vssd1 vssd1 vccd1 vccd1 hold52/X sky130_fd_sc_hd__dlygate4sd3_1
Xhold30 hold30/A vssd1 vssd1 vccd1 vccd1 hold30/X sky130_fd_sc_hd__dlygate4sd3_1
Xhold41 hold41/A vssd1 vssd1 vccd1 vccd1 hold41/X sky130_fd_sc_hd__dlygate4sd3_1
Xhold63 hold63/A vssd1 vssd1 vccd1 vccd1 hold63/X sky130_fd_sc_hd__dlygate4sd3_1
Xhold85 wbs_dat_i[20] vssd1 vssd1 vccd1 vccd1 hold85/X sky130_fd_sc_hd__dlygate4sd3_1
Xhold96 hold96/A vssd1 vssd1 vccd1 vccd1 hold96/X sky130_fd_sc_hd__clkbuf_2
XFILLER_0_53_223 vssd1 vssd1 vccd1 vccd1 sky130_fd_sc_hd__fill_1
XFILLER_0_38_286 vssd1 vssd1 vccd1 vccd1 sky130_fd_sc_hd__fill_2
Xclkbuf_leaf_14_wb_clk_i clkbuf_leaf_9_wb_clk_i/A vssd1 vssd1 vccd1 vccd1 _1109_/CLK
+ sky130_fd_sc_hd__clkbuf_16
XFILLER_0_13_109 vssd1 vssd1 vccd1 vccd1 sky130_fd_sc_hd__decap_3
XTAP_348 vssd1 vccd1 sky130_fd_sc_hd__tapvpwrvgnd_1
XTAP_337 vssd1 vccd1 sky130_fd_sc_hd__tapvpwrvgnd_1
XTAP_326 vssd1 vccd1 sky130_fd_sc_hd__tapvpwrvgnd_1
XTAP_315 vssd1 vccd1 sky130_fd_sc_hd__tapvpwrvgnd_1
X_0521_ _0901_/Q _0869_/Q _1102_/Q _1064_/Q _0542_/S0 _0542_/S1 vssd1 vssd1 vccd1
+ vccd1 _0521_/X sky130_fd_sc_hd__mux4_1
XTAP_304 vssd1 vccd1 sky130_fd_sc_hd__tapvpwrvgnd_1
XFILLER_0_21_164 vssd1 vssd1 vccd1 vccd1 sky130_fd_sc_hd__decap_4
X_0452_ _0496_/A _0452_/B vssd1 vssd1 vccd1 vccd1 _0452_/X sky130_fd_sc_hd__and2_1
XTAP_359 vssd1 vccd1 sky130_fd_sc_hd__tapvpwrvgnd_1
X_1004_ _1101_/CLK _1004_/D vssd1 vssd1 vccd1 vccd1 _1004_/Q sky130_fd_sc_hd__dfxtp_1
XFILLER_0_32_83 vssd1 vssd1 vccd1 vccd1 sky130_fd_sc_hd__fill_1
XFILLER_0_29_253 vssd1 vssd1 vccd1 vccd1 sky130_fd_sc_hd__fill_2
XFILLER_0_8_103 vssd1 vssd1 vccd1 vccd1 sky130_fd_sc_hd__decap_3
XFILLER_0_8_136 vssd1 vssd1 vccd1 vccd1 sky130_fd_sc_hd__fill_2
Xhold500 _0583_/X vssd1 vssd1 vccd1 vccd1 _0877_/D sky130_fd_sc_hd__dlygate4sd3_1
Xhold511 wbs_dat_i[6] vssd1 vssd1 vccd1 vccd1 input63/A sky130_fd_sc_hd__dlygate4sd3_1
Xhold544 _0663_/X vssd1 vssd1 vccd1 vccd1 _0953_/D sky130_fd_sc_hd__dlygate4sd3_1
Xhold522 _0776_/X vssd1 vssd1 vccd1 vccd1 _1052_/D sky130_fd_sc_hd__dlygate4sd3_1
Xhold533 _0883_/Q vssd1 vssd1 vccd1 vccd1 hold533/X sky130_fd_sc_hd__dlygate4sd3_1
XFILLER_0_12_153 vssd1 vssd1 vccd1 vccd1 sky130_fd_sc_hd__fill_2
Xhold577 _0998_/Q vssd1 vssd1 vccd1 vccd1 hold577/X sky130_fd_sc_hd__dlygate4sd3_1
X_0719_ hold370/X hold308/X _0731_/S vssd1 vssd1 vccd1 vccd1 _0719_/X sky130_fd_sc_hd__mux2_1
Xhold566 _1023_/Q vssd1 vssd1 vccd1 vccd1 hold566/X sky130_fd_sc_hd__dlygate4sd3_1
XFILLER_0_12_197 vssd1 vssd1 vccd1 vccd1 sky130_ef_sc_hd__decap_12
Xhold555 _1072_/Q vssd1 vssd1 vccd1 vccd1 _0615_/B sky130_fd_sc_hd__buf_1
Xhold588 _0920_/Q vssd1 vssd1 vccd1 vccd1 hold588/X sky130_fd_sc_hd__dlygate4sd3_1
XFILLER_0_35_256 vssd1 vssd1 vccd1 vccd1 sky130_ef_sc_hd__decap_12
Xoutput75 _0484_/X vssd1 vssd1 vccd1 vccd1 wbs_dat_o[14] sky130_fd_sc_hd__buf_12
XFILLER_0_53_27 vssd1 vssd1 vccd1 vccd1 sky130_ef_sc_hd__decap_12
Xoutput86 _0524_/X vssd1 vssd1 vccd1 vccd1 wbs_dat_o[24] sky130_fd_sc_hd__buf_12
Xoutput97 _0448_/X vssd1 vssd1 vccd1 vccd1 wbs_dat_o[5] sky130_fd_sc_hd__buf_12
XFILLER_0_41_237 vssd1 vssd1 vccd1 vccd1 sky130_fd_sc_hd__decap_8
XANTENNA__0780__S _0795_/S vssd1 vssd1 vccd1 vccd1 sky130_fd_sc_hd__diode_2
X_0435_ _0434_/X _0433_/X _0809_/A vssd1 vssd1 vccd1 vccd1 _0436_/B sky130_fd_sc_hd__mux2_1
XTAP_167 vssd1 vccd1 sky130_fd_sc_hd__tapvpwrvgnd_1
XTAP_156 vssd1 vccd1 sky130_fd_sc_hd__tapvpwrvgnd_1
XTAP_145 vssd1 vccd1 sky130_fd_sc_hd__tapvpwrvgnd_1
XTAP_134 vssd1 vccd1 sky130_fd_sc_hd__tapvpwrvgnd_1
XTAP_178 vssd1 vccd1 sky130_fd_sc_hd__tapvpwrvgnd_1
XTAP_189 vssd1 vccd1 sky130_fd_sc_hd__tapvpwrvgnd_1
X_0504_ _0552_/A _0504_/B vssd1 vssd1 vccd1 vccd1 _0504_/X sky130_fd_sc_hd__and2_1
XFILLER_0_27_83 vssd1 vssd1 vccd1 vccd1 sky130_fd_sc_hd__decap_6
XFILLER_0_27_61 vssd1 vssd1 vccd1 vccd1 sky130_fd_sc_hd__fill_2
XFILLER_0_43_82 vssd1 vssd1 vccd1 vccd1 sky130_fd_sc_hd__fill_1
XANTENNA__0690__S _0698_/S vssd1 vssd1 vccd1 vccd1 sky130_fd_sc_hd__diode_2
Xhold341 _0703_/X vssd1 vssd1 vccd1 vccd1 _0992_/D sky130_fd_sc_hd__dlygate4sd3_1
Xhold330 _0960_/Q vssd1 vssd1 vccd1 vccd1 hold330/X sky130_fd_sc_hd__dlygate4sd3_1
Xhold385 _1079_/Q vssd1 vssd1 vccd1 vccd1 hold385/X sky130_fd_sc_hd__dlygate4sd3_1
Xhold363 _0766_/X vssd1 vssd1 vccd1 vccd1 _1042_/D sky130_fd_sc_hd__dlygate4sd3_1
XFILLER_0_4_194 vssd1 vssd1 vccd1 vccd1 sky130_fd_sc_hd__fill_2
Xhold396 wbs_dat_i[4] vssd1 vssd1 vccd1 vccd1 input61/A sky130_fd_sc_hd__dlygate4sd3_1
Xhold374 wbs_dat_i[1] vssd1 vssd1 vccd1 vccd1 input46/A sky130_fd_sc_hd__dlygate4sd3_1
XFILLER_0_7_82 vssd1 vssd1 vccd1 vccd1 sky130_fd_sc_hd__fill_2
Xhold352 _0919_/Q vssd1 vssd1 vccd1 vccd1 hold352/X sky130_fd_sc_hd__dlygate4sd3_1
XFILLER_0_63_373 vssd1 vssd1 vccd1 vccd1 sky130_ef_sc_hd__decap_12
XFILLER_0_48_27 vssd1 vssd1 vccd1 vccd1 sky130_fd_sc_hd__fill_1
XFILLER_0_64_15 vssd1 vssd1 vccd1 vccd1 sky130_ef_sc_hd__decap_12
XANTENNA__0775__S _0778_/S vssd1 vssd1 vccd1 vccd1 sky130_fd_sc_hd__diode_2
XFILLER_0_58_189 vssd1 vssd1 vccd1 vccd1 sky130_fd_sc_hd__decap_6
XFILLER_0_13_41 vssd1 vssd1 vccd1 vccd1 sky130_ef_sc_hd__decap_12
X_0984_ _1090_/CLK _0984_/D vssd1 vssd1 vccd1 vccd1 _0984_/Q sky130_fd_sc_hd__dfxtp_1
XFILLER_0_1_175 vssd1 vssd1 vccd1 vccd1 sky130_fd_sc_hd__fill_1
XFILLER_0_14_237 vssd1 vssd1 vccd1 vccd1 sky130_fd_sc_hd__fill_1
XANTENNA__0685__S _0698_/S vssd1 vssd1 vccd1 vccd1 sky130_fd_sc_hd__diode_2
Xfanout128 hold561/X vssd1 vssd1 vccd1 vccd1 _0804_/D sky130_fd_sc_hd__buf_6
X_0418_ _0418_/A input9/X _0418_/C _0418_/D vssd1 vssd1 vccd1 vccd1 _0419_/D sky130_fd_sc_hd__or4_1
Xfanout117 _0572_/S vssd1 vssd1 vccd1 vccd1 _0850_/S sky130_fd_sc_hd__buf_8
Xfanout106 _0778_/S vssd1 vssd1 vccd1 vccd1 _0795_/S sky130_fd_sc_hd__buf_8
XFILLER_0_49_167 vssd1 vssd1 vccd1 vccd1 sky130_fd_sc_hd__fill_1
XFILLER_0_64_137 vssd1 vssd1 vccd1 vccd1 sky130_fd_sc_hd__decap_3
XFILLER_0_60_365 vssd1 vssd1 vccd1 vccd1 sky130_ef_sc_hd__decap_12
XFILLER_0_60_321 vssd1 vssd1 vccd1 vccd1 sky130_ef_sc_hd__decap_12
Xhold171 _0908_/Q vssd1 vssd1 vccd1 vccd1 hold171/X sky130_fd_sc_hd__dlygate4sd3_1
Xhold182 _1028_/Q vssd1 vssd1 vccd1 vccd1 hold182/X sky130_fd_sc_hd__dlygate4sd3_1
Xhold160 _0579_/X vssd1 vssd1 vccd1 vccd1 _0875_/D sky130_fd_sc_hd__dlygate4sd3_1
Xhold193 _0737_/X vssd1 vssd1 vccd1 vccd1 _1025_/D sky130_fd_sc_hd__dlygate4sd3_1
XFILLER_0_13_281 vssd1 vssd1 vccd1 vccd1 sky130_fd_sc_hd__fill_2
XANTENNA__0549__S0 _0550_/S0 vssd1 vssd1 vccd1 vccd1 sky130_fd_sc_hd__diode_2
XANTENNA__0595__S _0597_/S vssd1 vssd1 vccd1 vccd1 sky130_fd_sc_hd__diode_2
XFILLER_0_63_181 vssd1 vssd1 vccd1 vccd1 sky130_ef_sc_hd__decap_12
XFILLER_0_59_15 vssd1 vssd1 vccd1 vccd1 sky130_ef_sc_hd__decap_12
XFILLER_0_42_365 vssd1 vssd1 vccd1 vccd1 sky130_fd_sc_hd__decap_4
XFILLER_0_40_94 vssd1 vssd1 vccd1 vccd1 sky130_ef_sc_hd__decap_12
X_0967_ _1104_/CLK hold3/X vssd1 vssd1 vccd1 vccd1 _0967_/Q sky130_fd_sc_hd__dfxtp_1
XFILLER_0_6_245 vssd1 vssd1 vccd1 vccd1 sky130_fd_sc_hd__fill_1
XFILLER_0_6_256 vssd1 vssd1 vccd1 vccd1 sky130_fd_sc_hd__fill_1
XFILLER_0_64_3 vssd1 vssd1 vccd1 vccd1 sky130_ef_sc_hd__decap_12
XFILLER_0_49_81 vssd1 vssd1 vccd1 vccd1 sky130_fd_sc_hd__fill_2
X_0898_ _1109_/CLK _0898_/D vssd1 vssd1 vccd1 vccd1 _0898_/Q sky130_fd_sc_hd__dfxtp_1
XFILLER_0_4_83 vssd1 vssd1 vccd1 vccd1 sky130_fd_sc_hd__fill_1
XANTENNA__0428__B _0428_/B vssd1 vssd1 vccd1 vccd1 sky130_fd_sc_hd__diode_2
XFILLER_0_60_195 vssd1 vssd1 vccd1 vccd1 sky130_fd_sc_hd__fill_1
XFILLER_0_61_27 vssd1 vssd1 vccd1 vccd1 sky130_ef_sc_hd__decap_12
XFILLER_0_43_129 vssd1 vssd1 vccd1 vccd1 sky130_fd_sc_hd__fill_1
XFILLER_0_36_192 vssd1 vssd1 vccd1 vccd1 sky130_fd_sc_hd__decap_4
X_0821_ hold372/X hold291/X _0827_/S vssd1 vssd1 vccd1 vccd1 _0821_/X sky130_fd_sc_hd__mux2_1
XFILLER_0_28_137 vssd1 vssd1 vccd1 vccd1 sky130_fd_sc_hd__decap_3
X_0752_ _0759_/B _0802_/B vssd1 vssd1 vccd1 vccd1 _0755_/B sky130_fd_sc_hd__nand2b_1
XFILLER_0_51_162 vssd1 vssd1 vccd1 vccd1 sky130_fd_sc_hd__fill_2
XFILLER_0_10_53 vssd1 vssd1 vccd1 vccd1 sky130_fd_sc_hd__decap_6
XFILLER_0_10_97 vssd1 vssd1 vccd1 vccd1 sky130_fd_sc_hd__fill_2
X_0683_ _1074_/Q _1073_/Q input1/X _0797_/B vssd1 vssd1 vccd1 vccd1 _0714_/S sky130_fd_sc_hd__or4_4
XFILLER_0_59_273 vssd1 vssd1 vccd1 vccd1 sky130_fd_sc_hd__decap_6
X_1097_ _1100_/CLK _1097_/D vssd1 vssd1 vccd1 vccd1 _1097_/Q sky130_fd_sc_hd__dfxtp_1
XFILLER_0_30_302 vssd1 vssd1 vccd1 vccd1 sky130_fd_sc_hd__decap_3
XFILLER_0_15_354 vssd1 vssd1 vccd1 vccd1 sky130_fd_sc_hd__decap_4
XTAP_519 vssd1 vccd1 sky130_fd_sc_hd__tapvpwrvgnd_1
XTAP_508 vssd1 vccd1 sky130_fd_sc_hd__tapvpwrvgnd_1
XFILLER_0_33_151 vssd1 vssd1 vccd1 vccd1 sky130_fd_sc_hd__fill_1
XFILLER_0_56_27 vssd1 vssd1 vccd1 vccd1 sky130_fd_sc_hd__fill_1
X_1020_ _1093_/CLK _1020_/D vssd1 vssd1 vccd1 vccd1 _1020_/Q sky130_fd_sc_hd__dfxtp_1
XFILLER_0_56_265 vssd1 vssd1 vccd1 vccd1 sky130_ef_sc_hd__decap_12
XFILLER_0_56_221 vssd1 vssd1 vccd1 vccd1 sky130_ef_sc_hd__decap_12
XANTENNA__0783__S _0795_/S vssd1 vssd1 vccd1 vccd1 sky130_fd_sc_hd__diode_2
XFILLER_0_29_402 vssd1 vssd1 vccd1 vccd1 sky130_fd_sc_hd__fill_2
XFILLER_0_21_41 vssd1 vssd1 vccd1 vccd1 sky130_fd_sc_hd__decap_8
X_0735_ hold566/X hold5/X _0748_/S vssd1 vssd1 vccd1 vccd1 hold6/A sky130_fd_sc_hd__mux2_1
X_0804_ _0759_/B _0804_/B _0804_/C _0804_/D vssd1 vssd1 vccd1 vccd1 _0809_/C sky130_fd_sc_hd__and4b_2
X_0597_ hold572/X hold198/X _0597_/S vssd1 vssd1 vccd1 vccd1 _0597_/X sky130_fd_sc_hd__mux2_1
X_0666_ hold204/X hold195/X _0682_/S vssd1 vssd1 vccd1 vccd1 _0666_/X sky130_fd_sc_hd__mux2_1
XANTENNA__0693__S _0698_/S vssd1 vssd1 vccd1 vccd1 sky130_fd_sc_hd__diode_2
XFILLER_0_27_3 vssd1 vssd1 vccd1 vccd1 sky130_ef_sc_hd__decap_12
Xhold75 hold75/A vssd1 vssd1 vccd1 vccd1 hold75/X sky130_fd_sc_hd__dlygate4sd3_1
Xhold20 hold20/A vssd1 vssd1 vccd1 vccd1 hold20/X sky130_fd_sc_hd__clkbuf_2
Xhold86 hold86/A vssd1 vssd1 vccd1 vccd1 hold86/X sky130_fd_sc_hd__clkbuf_2
Xhold31 hold31/A vssd1 vssd1 vccd1 vccd1 hold31/X sky130_fd_sc_hd__dlygate4sd3_1
Xhold42 hold42/A vssd1 vssd1 vccd1 vccd1 hold42/X sky130_fd_sc_hd__dlygate4sd3_1
Xhold53 hold53/A vssd1 vssd1 vccd1 vccd1 hold53/X sky130_fd_sc_hd__dlygate4sd3_1
Xhold64 hold64/A vssd1 vssd1 vccd1 vccd1 hold64/X sky130_fd_sc_hd__dlygate4sd3_1
Xhold97 hold97/A vssd1 vssd1 vccd1 vccd1 hold97/X sky130_fd_sc_hd__dlygate4sd3_1
XFILLER_0_42_29 vssd1 vssd1 vccd1 vccd1 sky130_fd_sc_hd__fill_2
XFILLER_0_38_221 vssd1 vssd1 vccd1 vccd1 sky130_fd_sc_hd__fill_2
XANTENNA__0778__S _0778_/S vssd1 vssd1 vccd1 vccd1 sky130_fd_sc_hd__diode_2
XTAP_349 vssd1 vccd1 sky130_fd_sc_hd__tapvpwrvgnd_1
XTAP_338 vssd1 vccd1 sky130_fd_sc_hd__tapvpwrvgnd_1
XTAP_327 vssd1 vccd1 sky130_fd_sc_hd__tapvpwrvgnd_1
XTAP_316 vssd1 vccd1 sky130_fd_sc_hd__tapvpwrvgnd_1
XTAP_305 vssd1 vccd1 sky130_fd_sc_hd__tapvpwrvgnd_1
X_0451_ _0450_/X _0449_/X _0809_/A vssd1 vssd1 vccd1 vccd1 _0452_/B sky130_fd_sc_hd__mux2_1
X_0520_ _0552_/A _0520_/B vssd1 vssd1 vccd1 vccd1 _0520_/X sky130_fd_sc_hd__and2_1
X_1003_ _1109_/CLK _1003_/D vssd1 vssd1 vccd1 vccd1 _1003_/Q sky130_fd_sc_hd__dfxtp_1
XFILLER_0_29_298 vssd1 vssd1 vccd1 vccd1 sky130_fd_sc_hd__fill_2
XFILLER_0_29_265 vssd1 vssd1 vccd1 vccd1 sky130_fd_sc_hd__fill_1
XFILLER_0_8_159 vssd1 vssd1 vccd1 vccd1 sky130_fd_sc_hd__decap_3
Xhold501 _1014_/Q vssd1 vssd1 vccd1 vccd1 hold501/X sky130_fd_sc_hd__dlygate4sd3_1
X_0718_ hold399/X hold375/X _0731_/S vssd1 vssd1 vccd1 vccd1 _0718_/X sky130_fd_sc_hd__mux2_1
Xhold578 _0975_/Q vssd1 vssd1 vccd1 vccd1 hold578/X sky130_fd_sc_hd__dlygate4sd3_1
Xhold512 input63/X vssd1 vssd1 vccd1 vccd1 hold512/X sky130_fd_sc_hd__clkbuf_2
Xhold534 _0589_/X vssd1 vssd1 vccd1 vccd1 _0883_/D sky130_fd_sc_hd__dlygate4sd3_1
Xhold523 _0851_/Q vssd1 vssd1 vccd1 vccd1 hold523/X sky130_fd_sc_hd__dlygate4sd3_1
XFILLER_0_12_110 vssd1 vssd1 vccd1 vccd1 sky130_fd_sc_hd__fill_1
Xhold556 _0796_/X vssd1 vssd1 vccd1 vccd1 _0797_/C sky130_fd_sc_hd__dlygate4sd3_1
Xhold545 _1074_/Q vssd1 vssd1 vccd1 vccd1 _0800_/A sky130_fd_sc_hd__dlygate4sd3_1
Xhold567 _1095_/Q vssd1 vssd1 vccd1 vccd1 hold567/X sky130_fd_sc_hd__dlygate4sd3_1
XFILLER_0_57_81 vssd1 vssd1 vccd1 vccd1 sky130_ef_sc_hd__decap_12
XANTENNA__0688__S _0698_/S vssd1 vssd1 vccd1 vccd1 sky130_fd_sc_hd__diode_2