* NGSPICE file created from wishbone_nn.ext - technology: sky130A

* Black-box entry subcircuit for sky130_fd_sc_hd__tapvpwrvgnd_1 abstract view
.subckt sky130_fd_sc_hd__tapvpwrvgnd_1 VGND VPWR
.ends

* Black-box entry subcircuit for sky130_fd_sc_hd__dlygate4sd3_1 abstract view
.subckt sky130_fd_sc_hd__dlygate4sd3_1 A VGND VNB VPB VPWR X
.ends

* Black-box entry subcircuit for sky130_fd_sc_hd__clkbuf_2 abstract view
.subckt sky130_fd_sc_hd__clkbuf_2 A VGND VNB VPB VPWR X
.ends

* Black-box entry subcircuit for sky130_fd_sc_hd__fill_2 abstract view
.subckt sky130_fd_sc_hd__fill_2 VGND VNB VPB VPWR
.ends

* Black-box entry subcircuit for sky130_fd_sc_hd__diode_2 abstract view
.subckt sky130_fd_sc_hd__diode_2 DIODE VGND VNB VPB VPWR
.ends

* Black-box entry subcircuit for sky130_ef_sc_hd__decap_12 abstract view
.subckt sky130_ef_sc_hd__decap_12 VGND VNB VPB VPWR
.ends

* Black-box entry subcircuit for sky130_fd_sc_hd__dfxtp_1 abstract view
.subckt sky130_fd_sc_hd__dfxtp_1 CLK D VGND VNB VPB VPWR Q
.ends

* Black-box entry subcircuit for sky130_fd_sc_hd__mux2_1 abstract view
.subckt sky130_fd_sc_hd__mux2_1 A0 A1 S VGND VNB VPB VPWR X
.ends

* Black-box entry subcircuit for sky130_fd_sc_hd__clkbuf_8 abstract view
.subckt sky130_fd_sc_hd__clkbuf_8 A VGND VNB VPB VPWR X
.ends

* Black-box entry subcircuit for sky130_fd_sc_hd__buf_4 abstract view
.subckt sky130_fd_sc_hd__buf_4 A VGND VNB VPB VPWR X
.ends

* Black-box entry subcircuit for sky130_fd_sc_hd__buf_8 abstract view
.subckt sky130_fd_sc_hd__buf_8 A VGND VNB VPB VPWR X
.ends

* Black-box entry subcircuit for sky130_fd_sc_hd__decap_3 abstract view
.subckt sky130_fd_sc_hd__decap_3 VGND VNB VPB VPWR
.ends

* Black-box entry subcircuit for sky130_fd_sc_hd__decap_4 abstract view
.subckt sky130_fd_sc_hd__decap_4 VGND VNB VPB VPWR
.ends

* Black-box entry subcircuit for sky130_fd_sc_hd__mux4_1 abstract view
.subckt sky130_fd_sc_hd__mux4_1 A0 A1 A2 A3 S0 S1 VGND VNB VPB VPWR X
.ends

* Black-box entry subcircuit for sky130_fd_sc_hd__nor2_1 abstract view
.subckt sky130_fd_sc_hd__nor2_1 A B VGND VNB VPB VPWR Y
.ends

* Black-box entry subcircuit for sky130_fd_sc_hd__decap_6 abstract view
.subckt sky130_fd_sc_hd__decap_6 VGND VNB VPB VPWR
.ends

* Black-box entry subcircuit for sky130_fd_sc_hd__fill_1 abstract view
.subckt sky130_fd_sc_hd__fill_1 VGND VNB VPB VPWR
.ends

* Black-box entry subcircuit for sky130_fd_sc_hd__a21oi_1 abstract view
.subckt sky130_fd_sc_hd__a21oi_1 A1 A2 B1 VGND VNB VPB VPWR Y
.ends

* Black-box entry subcircuit for sky130_fd_sc_hd__clkbuf_16 abstract view
.subckt sky130_fd_sc_hd__clkbuf_16 A VGND VNB VPB VPWR X
.ends

* Black-box entry subcircuit for sky130_fd_sc_hd__decap_8 abstract view
.subckt sky130_fd_sc_hd__decap_8 VGND VNB VPB VPWR
.ends

* Black-box entry subcircuit for sky130_fd_sc_hd__buf_12 abstract view
.subckt sky130_fd_sc_hd__buf_12 A VGND VNB VPB VPWR X
.ends

* Black-box entry subcircuit for sky130_fd_sc_hd__buf_6 abstract view
.subckt sky130_fd_sc_hd__buf_6 A VGND VNB VPB VPWR X
.ends

* Black-box entry subcircuit for sky130_fd_sc_hd__a22oi_1 abstract view
.subckt sky130_fd_sc_hd__a22oi_1 A1 A2 B1 B2 VGND VNB VPB VPWR Y
.ends

* Black-box entry subcircuit for sky130_fd_sc_hd__xor2_1 abstract view
.subckt sky130_fd_sc_hd__xor2_1 A B VGND VNB VPB VPWR X
.ends

* Black-box entry subcircuit for sky130_fd_sc_hd__nor3b_4 abstract view
.subckt sky130_fd_sc_hd__nor3b_4 A B C_N VGND VNB VPB VPWR Y
.ends

* Black-box entry subcircuit for sky130_fd_sc_hd__buf_1 abstract view
.subckt sky130_fd_sc_hd__buf_1 A VGND VNB VPB VPWR X
.ends

* Black-box entry subcircuit for sky130_fd_sc_hd__a21o_1 abstract view
.subckt sky130_fd_sc_hd__a21o_1 A1 A2 B1 VGND VNB VPB VPWR X
.ends

* Black-box entry subcircuit for sky130_fd_sc_hd__nand2b_4 abstract view
.subckt sky130_fd_sc_hd__nand2b_4 A_N B VGND VNB VPB VPWR Y
.ends

* Black-box entry subcircuit for sky130_fd_sc_hd__clkdlybuf4s25_1 abstract view
.subckt sky130_fd_sc_hd__clkdlybuf4s25_1 A VGND VNB VPB VPWR X
.ends

* Black-box entry subcircuit for sky130_fd_sc_hd__buf_2 abstract view
.subckt sky130_fd_sc_hd__buf_2 A VGND VNB VPB VPWR X
.ends

* Black-box entry subcircuit for sky130_fd_sc_hd__and3b_2 abstract view
.subckt sky130_fd_sc_hd__and3b_2 A_N B C VGND VNB VPB VPWR X
.ends

* Black-box entry subcircuit for sky130_fd_sc_hd__or3_1 abstract view
.subckt sky130_fd_sc_hd__or3_1 A B C VGND VNB VPB VPWR X
.ends

* Black-box entry subcircuit for sky130_fd_sc_hd__or4_1 abstract view
.subckt sky130_fd_sc_hd__or4_1 A B C D VGND VNB VPB VPWR X
.ends

* Black-box entry subcircuit for sky130_fd_sc_hd__and3b_1 abstract view
.subckt sky130_fd_sc_hd__and3b_1 A_N B C VGND VNB VPB VPWR X
.ends

* Black-box entry subcircuit for sky130_fd_sc_hd__or2_1 abstract view
.subckt sky130_fd_sc_hd__or2_1 A B VGND VNB VPB VPWR X
.ends

* Black-box entry subcircuit for sky130_fd_sc_hd__nand2_1 abstract view
.subckt sky130_fd_sc_hd__nand2_1 A B VGND VNB VPB VPWR Y
.ends

* Black-box entry subcircuit for sky130_fd_sc_hd__and4bb_1 abstract view
.subckt sky130_fd_sc_hd__and4bb_1 A_N B_N C D VGND VNB VPB VPWR X
.ends

* Black-box entry subcircuit for sky130_fd_sc_hd__nor4_1 abstract view
.subckt sky130_fd_sc_hd__nor4_1 A B C D VGND VNB VPB VPWR Y
.ends

* Black-box entry subcircuit for sky130_fd_sc_hd__o21a_1 abstract view
.subckt sky130_fd_sc_hd__o21a_1 A1 A2 B1 VGND VNB VPB VPWR X
.ends

* Black-box entry subcircuit for sky130_fd_sc_hd__inv_2 abstract view
.subckt sky130_fd_sc_hd__inv_2 A VGND VNB VPB VPWR Y
.ends

* Black-box entry subcircuit for sky130_fd_sc_hd__clkbuf_1 abstract view
.subckt sky130_fd_sc_hd__clkbuf_1 A VGND VNB VPB VPWR X
.ends

* Black-box entry subcircuit for sky130_fd_sc_hd__or3b_1 abstract view
.subckt sky130_fd_sc_hd__or3b_1 A B C_N VGND VNB VPB VPWR X
.ends

* Black-box entry subcircuit for sky130_fd_sc_hd__or4b_1 abstract view
.subckt sky130_fd_sc_hd__or4b_1 A B C D_N VGND VNB VPB VPWR X
.ends

* Black-box entry subcircuit for sky130_fd_sc_hd__nand2b_1 abstract view
.subckt sky130_fd_sc_hd__nand2b_1 A_N B VGND VNB VPB VPWR Y
.ends

* Black-box entry subcircuit for sky130_fd_sc_hd__and2_1 abstract view
.subckt sky130_fd_sc_hd__and2_1 A B VGND VNB VPB VPWR X
.ends

* Black-box entry subcircuit for sky130_fd_sc_hd__or4_4 abstract view
.subckt sky130_fd_sc_hd__or4_4 A B C D VGND VNB VPB VPWR X
.ends

* Black-box entry subcircuit for sky130_fd_sc_hd__a22o_1 abstract view
.subckt sky130_fd_sc_hd__a22o_1 A1 A2 B1 B2 VGND VNB VPB VPWR X
.ends

* Black-box entry subcircuit for sky130_fd_sc_hd__xnor2_2 abstract view
.subckt sky130_fd_sc_hd__xnor2_2 A B VGND VNB VPB VPWR Y
.ends

* Black-box entry subcircuit for sky130_fd_sc_hd__nand3_2 abstract view
.subckt sky130_fd_sc_hd__nand3_2 A B C VGND VNB VPB VPWR Y
.ends

* Black-box entry subcircuit for sky130_fd_sc_hd__and2b_1 abstract view
.subckt sky130_fd_sc_hd__and2b_1 A_N B VGND VNB VPB VPWR X
.ends

* Black-box entry subcircuit for sky130_fd_sc_hd__nand2_2 abstract view
.subckt sky130_fd_sc_hd__nand2_2 A B VGND VNB VPB VPWR Y
.ends

* Black-box entry subcircuit for sky130_fd_sc_hd__and3_4 abstract view
.subckt sky130_fd_sc_hd__and3_4 A B C VGND VNB VPB VPWR X
.ends

* Black-box entry subcircuit for sky130_fd_sc_hd__or4b_4 abstract view
.subckt sky130_fd_sc_hd__or4b_4 A B C D_N VGND VNB VPB VPWR X
.ends

* Black-box entry subcircuit for sky130_fd_sc_hd__and3b_4 abstract view
.subckt sky130_fd_sc_hd__and3b_4 A_N B C VGND VNB VPB VPWR X
.ends

* Black-box entry subcircuit for sky130_fd_sc_hd__and3_1 abstract view
.subckt sky130_fd_sc_hd__and3_1 A B C VGND VNB VPB VPWR X
.ends

* Black-box entry subcircuit for sky130_fd_sc_hd__dfxtp_2 abstract view
.subckt sky130_fd_sc_hd__dfxtp_2 CLK D VGND VNB VPB VPWR Q
.ends

* Black-box entry subcircuit for sky130_fd_sc_hd__o221a_1 abstract view
.subckt sky130_fd_sc_hd__o221a_1 A1 A2 B1 B2 C1 VGND VNB VPB VPWR X
.ends

* Black-box entry subcircuit for sky130_fd_sc_hd__dfxtp_4 abstract view
.subckt sky130_fd_sc_hd__dfxtp_4 CLK D VGND VNB VPB VPWR Q
.ends

* Black-box entry subcircuit for sky130_fd_sc_hd__nand3b_4 abstract view
.subckt sky130_fd_sc_hd__nand3b_4 A_N B C VGND VNB VPB VPWR Y
.ends

* Black-box entry subcircuit for sky130_fd_sc_hd__nor2_4 abstract view
.subckt sky130_fd_sc_hd__nor2_4 A B VGND VNB VPB VPWR Y
.ends

* Black-box entry subcircuit for sky130_fd_sc_hd__nand4_1 abstract view
.subckt sky130_fd_sc_hd__nand4_1 A B C D VGND VNB VPB VPWR Y
.ends

* Black-box entry subcircuit for sky130_fd_sc_hd__and4b_1 abstract view
.subckt sky130_fd_sc_hd__and4b_1 A_N B C D VGND VNB VPB VPWR X
.ends

* Black-box entry subcircuit for sky130_fd_sc_hd__a31o_1 abstract view
.subckt sky130_fd_sc_hd__a31o_1 A1 A2 A3 B1 VGND VNB VPB VPWR X
.ends

.subckt wishbone_nn vccd1 vssd1 wb_clk_i wb_rst_i wbs_ack_o wbs_adr_i[0] wbs_adr_i[10]
+ wbs_adr_i[11] wbs_adr_i[12] wbs_adr_i[13] wbs_adr_i[14] wbs_adr_i[15] wbs_adr_i[16]
+ wbs_adr_i[17] wbs_adr_i[18] wbs_adr_i[19] wbs_adr_i[1] wbs_adr_i[20] wbs_adr_i[21]
+ wbs_adr_i[22] wbs_adr_i[23] wbs_adr_i[24] wbs_adr_i[25] wbs_adr_i[26] wbs_adr_i[27]
+ wbs_adr_i[28] wbs_adr_i[29] wbs_adr_i[2] wbs_adr_i[30] wbs_adr_i[31] wbs_adr_i[3]
+ wbs_adr_i[4] wbs_adr_i[5] wbs_adr_i[6] wbs_adr_i[7] wbs_adr_i[8] wbs_adr_i[9] wbs_cyc_i
+ wbs_dat_i[0] wbs_dat_i[10] wbs_dat_i[11] wbs_dat_i[12] wbs_dat_i[13] wbs_dat_i[14]
+ wbs_dat_i[15] wbs_dat_i[16] wbs_dat_i[17] wbs_dat_i[18] wbs_dat_i[19] wbs_dat_i[1]
+ wbs_dat_i[20] wbs_dat_i[21] wbs_dat_i[22] wbs_dat_i[23] wbs_dat_i[24] wbs_dat_i[25]
+ wbs_dat_i[26] wbs_dat_i[27] wbs_dat_i[28] wbs_dat_i[29] wbs_dat_i[2] wbs_dat_i[30]
+ wbs_dat_i[31] wbs_dat_i[3] wbs_dat_i[4] wbs_dat_i[5] wbs_dat_i[6] wbs_dat_i[7] wbs_dat_i[8]
+ wbs_dat_i[9] wbs_dat_o[0] wbs_dat_o[10] wbs_dat_o[11] wbs_dat_o[12] wbs_dat_o[13]
+ wbs_dat_o[14] wbs_dat_o[15] wbs_dat_o[16] wbs_dat_o[17] wbs_dat_o[18] wbs_dat_o[19]
+ wbs_dat_o[1] wbs_dat_o[20] wbs_dat_o[21] wbs_dat_o[22] wbs_dat_o[23] wbs_dat_o[24]
+ wbs_dat_o[25] wbs_dat_o[26] wbs_dat_o[27] wbs_dat_o[28] wbs_dat_o[29] wbs_dat_o[2]
+ wbs_dat_o[30] wbs_dat_o[31] wbs_dat_o[3] wbs_dat_o[4] wbs_dat_o[5] wbs_dat_o[6]
+ wbs_dat_o[7] wbs_dat_o[8] wbs_dat_o[9] wbs_sel_i[0] wbs_sel_i[1] wbs_sel_i[2] wbs_sel_i[3]
+ wbs_stb_i wbs_we_i
XTAP_177 vssd1 vccd1 sky130_fd_sc_hd__tapvpwrvgnd_1
XTAP_188 vssd1 vccd1 sky130_fd_sc_hd__tapvpwrvgnd_1
XTAP_199 vssd1 vccd1 sky130_fd_sc_hd__tapvpwrvgnd_1
Xhold340 _1013_/X vssd1 vssd1 vccd1 vccd1 _1343_/D sky130_fd_sc_hd__dlygate4sd3_1
Xhold351 _1351_/Q vssd1 vssd1 vccd1 vccd1 hold351/X sky130_fd_sc_hd__dlygate4sd3_1
Xhold362 input43/X vssd1 vssd1 vccd1 vccd1 hold362/X sky130_fd_sc_hd__clkbuf_2
XFILLER_0_17_299 vssd1 vssd1 vccd1 vccd1 sky130_fd_sc_hd__fill_2
XFILLER_0_13_494 vssd1 vssd1 vccd1 vccd1 sky130_fd_sc_hd__fill_2
Xhold395 _0600_/X vssd1 vssd1 vccd1 vccd1 _1097_/D sky130_fd_sc_hd__dlygate4sd3_1
Xhold373 _1014_/X vssd1 vssd1 vccd1 vccd1 _1344_/D sky130_fd_sc_hd__dlygate4sd3_1
Xhold384 _1063_/Q vssd1 vssd1 vccd1 vccd1 hold384/X sky130_fd_sc_hd__dlygate4sd3_1
XANTENNA__0584__S _0614_/S vssd1 vssd1 vccd1 vccd1 sky130_fd_sc_hd__diode_2
XFILLER_0_23_225 vssd1 vssd1 vccd1 vccd1 sky130_ef_sc_hd__decap_12
XANTENNA__0759__S _0771_/S vssd1 vssd1 vccd1 vccd1 sky130_fd_sc_hd__diode_2
X_1270_ _1334_/CLK _1270_/D vssd1 vssd1 vccd1 vccd1 _1270_/Q sky130_fd_sc_hd__dfxtp_1
XFILLER_0_42_589 vssd1 vssd1 vccd1 vccd1 sky130_ef_sc_hd__decap_12
XFILLER_0_27_586 vssd1 vssd1 vccd1 vccd1 sky130_fd_sc_hd__fill_2
X_0985_ hold48/X hold60/X _0994_/S vssd1 vssd1 vccd1 vccd1 hold61/A sky130_fd_sc_hd__mux2_1
Xfanout127 _0757_/S1 vssd1 vssd1 vccd1 vccd1 _0774_/S1 sky130_fd_sc_hd__clkbuf_8
Xfanout138 input1/X vssd1 vssd1 vccd1 vccd1 _0977_/C sky130_fd_sc_hd__buf_4
Xfanout105 _0776_/S vssd1 vssd1 vccd1 vccd1 _0708_/S sky130_fd_sc_hd__buf_8
XFILLER_0_10_486 vssd1 vssd1 vccd1 vccd1 sky130_fd_sc_hd__decap_3
Xfanout116 _0647_/S vssd1 vssd1 vccd1 vccd1 _0630_/S sky130_fd_sc_hd__buf_8
XFILLER_0_45_361 vssd1 vssd1 vccd1 vccd1 sky130_ef_sc_hd__decap_12
XFILLER_0_18_597 vssd1 vssd1 vccd1 vccd1 sky130_fd_sc_hd__decap_4
XFILLER_0_9_285 vssd1 vssd1 vccd1 vccd1 sky130_fd_sc_hd__decap_3
Xhold192 _1128_/Q vssd1 vssd1 vccd1 vccd1 hold192/X sky130_fd_sc_hd__dlygate4sd3_1
Xhold181 _0566_/X vssd1 vssd1 vccd1 vccd1 _1064_/D sky130_fd_sc_hd__dlygate4sd3_1
XANTENNA__0579__S _0580_/S vssd1 vssd1 vccd1 vccd1 sky130_fd_sc_hd__diode_2
XANTENNA__1277__CLK _1346_/CLK vssd1 vssd1 vccd1 vccd1 sky130_fd_sc_hd__diode_2
Xhold170 _1109_/Q vssd1 vssd1 vccd1 vccd1 hold170/X sky130_fd_sc_hd__dlygate4sd3_1
XFILLER_0_24_501 vssd1 vssd1 vccd1 vccd1 sky130_fd_sc_hd__decap_4
X_0770_ hold651/X hold188/X hold99/X hold122/X _0774_/S0 _0774_/S1 vssd1 vssd1 vccd1
+ vccd1 _0770_/X sky130_fd_sc_hd__mux4_1
XFILLER_0_11_217 vssd1 vssd1 vccd1 vccd1 sky130_fd_sc_hd__fill_2
X_1253_ _1343_/CLK _1253_/D vssd1 vssd1 vccd1 vccd1 _1253_/Q sky130_fd_sc_hd__dfxtp_1
X_1322_ _1359_/CLK hold57/X vssd1 vssd1 vccd1 vccd1 hold56/A sky130_fd_sc_hd__dfxtp_1
XANTENNA_clkbuf_leaf_4_wb_clk_i_A clkbuf_leaf_5_wb_clk_i/A vssd1 vssd1 vccd1 vccd1
+ sky130_fd_sc_hd__diode_2
X_1184_ _1351_/CLK _1184_/D vssd1 vssd1 vccd1 vccd1 _1184_/Q sky130_fd_sc_hd__dfxtp_1
XANTENNA__0880__A2 _0906_/A2 vssd1 vssd1 vccd1 vccd1 sky130_fd_sc_hd__diode_2
XANTENNA__0518__A _0817_/B vssd1 vssd1 vccd1 vccd1 sky130_fd_sc_hd__diode_2
XFILLER_0_46_169 vssd1 vssd1 vccd1 vccd1 sky130_ef_sc_hd__decap_12
XFILLER_0_46_125 vssd1 vssd1 vccd1 vccd1 sky130_ef_sc_hd__decap_12
XFILLER_0_34_309 vssd1 vssd1 vccd1 vccd1 sky130_fd_sc_hd__fill_2
X_0968_ hold101/X hold73/X _0976_/S vssd1 vssd1 vccd1 vccd1 _0968_/X sky130_fd_sc_hd__mux2_1
XANTENNA_fanout125_A _0757_/S1 vssd1 vssd1 vccd1 vccd1 sky130_fd_sc_hd__diode_2
XANTENNA__0952__S _0961_/S vssd1 vssd1 vccd1 vccd1 sky130_fd_sc_hd__diode_2
XFILLER_0_40_93 vssd1 vssd1 vccd1 vccd1 sky130_fd_sc_hd__decap_3
X_0899_ _0907_/A _0899_/B vssd1 vssd1 vccd1 vccd1 _1237_/D sky130_fd_sc_hd__nor2_1
XFILLER_0_4_60 vssd1 vssd1 vccd1 vccd1 sky130_fd_sc_hd__fill_2
XFILLER_0_37_125 vssd1 vssd1 vccd1 vccd1 sky130_fd_sc_hd__decap_6
XANTENNA__1023__S _1024_/S vssd1 vssd1 vccd1 vccd1 sky130_fd_sc_hd__diode_2
XFILLER_0_37_169 vssd1 vssd1 vccd1 vccd1 sky130_fd_sc_hd__decap_4
XFILLER_0_20_19 vssd1 vssd1 vccd1 vccd1 sky130_fd_sc_hd__fill_1
XFILLER_0_45_27 vssd1 vssd1 vccd1 vccd1 sky130_ef_sc_hd__decap_12
XANTENNA__0862__A2 _0847_/D vssd1 vssd1 vccd1 vccd1 sky130_fd_sc_hd__diode_2
XFILLER_0_43_117 vssd1 vssd1 vccd1 vccd1 sky130_fd_sc_hd__fill_2
XFILLER_0_16_309 vssd1 vssd1 vccd1 vccd1 sky130_fd_sc_hd__decap_4
XANTENNA__0772__S _0772_/S vssd1 vssd1 vccd1 vccd1 sky130_fd_sc_hd__diode_2
XFILLER_0_9_27 vssd1 vssd1 vccd1 vccd1 sky130_fd_sc_hd__fill_1
X_0822_ _0821_/A _0821_/B _0813_/X vssd1 vssd1 vccd1 vccd1 _0827_/B sky130_fd_sc_hd__a21oi_1
X_0753_ hold472/X hold501/X hold482/X hold507/X _0757_/S0 _0757_/S1 vssd1 vssd1 vccd1
+ vccd1 _0753_/X sky130_fd_sc_hd__mux4_1
XFILLER_0_24_397 vssd1 vssd1 vccd1 vccd1 sky130_fd_sc_hd__fill_2
X_0684_ hold661/X hold607/X _0708_/S vssd1 vssd1 vccd1 vccd1 _0684_/X sky130_fd_sc_hd__mux2_1
XFILLER_0_3_225 vssd1 vssd1 vccd1 vccd1 sky130_fd_sc_hd__fill_1
XFILLER_0_10_63 vssd1 vssd1 vccd1 vccd1 sky130_fd_sc_hd__decap_3
XANTENNA__0947__S _0961_/S vssd1 vssd1 vccd1 vccd1 sky130_fd_sc_hd__diode_2
XFILLER_0_19_72 vssd1 vssd1 vccd1 vccd1 sky130_fd_sc_hd__fill_2
X_1305_ _1337_/CLK _1305_/D vssd1 vssd1 vccd1 vccd1 _1305_/Q sky130_fd_sc_hd__dfxtp_1
X_1236_ _1272_/CLK _1236_/D vssd1 vssd1 vccd1 vccd1 _1236_/Q sky130_fd_sc_hd__dfxtp_1
X_1098_ _1333_/CLK _1098_/D vssd1 vssd1 vccd1 vccd1 _1098_/Q sky130_fd_sc_hd__dfxtp_1
X_1167_ _1363_/CLK _1167_/D vssd1 vssd1 vccd1 vccd1 _1167_/Q sky130_fd_sc_hd__dfxtp_1
XFILLER_0_19_169 vssd1 vssd1 vccd1 vccd1 sky130_fd_sc_hd__fill_1
XFILLER_0_7_520 vssd1 vssd1 vccd1 vccd1 sky130_fd_sc_hd__fill_1
XFILLER_0_7_553 vssd1 vssd1 vccd1 vccd1 sky130_fd_sc_hd__fill_2
XFILLER_0_30_345 vssd1 vssd1 vccd1 vccd1 sky130_fd_sc_hd__decap_4
XANTENNA__1018__S _1024_/S vssd1 vssd1 vccd1 vccd1 sky130_fd_sc_hd__diode_2
XANTENNA__1315__CLK _1346_/CLK vssd1 vssd1 vccd1 vccd1 sky130_fd_sc_hd__diode_2
XFILLER_0_38_434 vssd1 vssd1 vccd1 vccd1 sky130_fd_sc_hd__fill_2
XANTENNA__0592__S _0614_/S vssd1 vssd1 vccd1 vccd1 sky130_fd_sc_hd__diode_2
XTAP_507 vssd1 vccd1 sky130_fd_sc_hd__tapvpwrvgnd_1
XFILLER_0_21_389 vssd1 vssd1 vccd1 vccd1 sky130_fd_sc_hd__decap_3
XTAP_529 vssd1 vccd1 sky130_fd_sc_hd__tapvpwrvgnd_1
XTAP_518 vssd1 vccd1 sky130_fd_sc_hd__tapvpwrvgnd_1
XANTENNA__0767__S _0771_/S vssd1 vssd1 vccd1 vccd1 sky130_fd_sc_hd__diode_2
X_1021_ hold351/X hold88/X _1024_/S vssd1 vssd1 vccd1 vccd1 _1021_/X sky130_fd_sc_hd__mux2_1
XANTENNA__0694__S1 _0706_/S1 vssd1 vssd1 vccd1 vccd1 sky130_fd_sc_hd__diode_2
X_0805_ hold107/X hold234/X _0808_/S vssd1 vssd1 vccd1 vccd1 _0805_/X sky130_fd_sc_hd__mux2_1
XFILLER_0_21_51 vssd1 vssd1 vccd1 vccd1 sky130_fd_sc_hd__decap_4
Xhold703 _0535_/X vssd1 vssd1 vccd1 vccd1 _1043_/D sky130_fd_sc_hd__dlygate4sd3_1
Xhold714 _1312_/Q vssd1 vssd1 vccd1 vccd1 hold714/X sky130_fd_sc_hd__dlygate4sd3_1
X_0667_ _0666_/X _0665_/X _0817_/B vssd1 vssd1 vccd1 vccd1 _0667_/X sky130_fd_sc_hd__mux2_1
Xhold725 _1157_/Q vssd1 vssd1 vccd1 vccd1 hold725/X sky130_fd_sc_hd__dlygate4sd3_1
XFILLER_0_4_589 vssd1 vssd1 vccd1 vccd1 sky130_fd_sc_hd__decap_3
X_0736_ hold646/X hold585/X _0772_/S vssd1 vssd1 vccd1 vccd1 _0736_/X sky130_fd_sc_hd__mux2_1
X_0598_ hold25/X hold347/X _0612_/S vssd1 vssd1 vccd1 vccd1 _0598_/X sky130_fd_sc_hd__mux2_1
XFILLER_0_46_81 vssd1 vssd1 vccd1 vccd1 sky130_fd_sc_hd__decap_3
XFILLER_0_34_3 vssd1 vssd1 vccd1 vccd1 sky130_ef_sc_hd__decap_12
X_1219_ _1254_/CLK _1219_/D vssd1 vssd1 vccd1 vccd1 _1219_/Q sky130_fd_sc_hd__dfxtp_1
XANTENNA__0685__S1 _0706_/S1 vssd1 vssd1 vccd1 vccd1 sky130_fd_sc_hd__diode_2
XFILLER_0_35_459 vssd1 vssd1 vccd1 vccd1 sky130_ef_sc_hd__decap_12
XFILLER_0_30_153 vssd1 vssd1 vccd1 vccd1 sky130_fd_sc_hd__decap_6
XANTENNA__0587__S _0614_/S vssd1 vssd1 vccd1 vccd1 sky130_fd_sc_hd__diode_2
XFILLER_0_30_175 vssd1 vssd1 vccd1 vccd1 sky130_ef_sc_hd__decap_12
Xhold74 hold74/A vssd1 vssd1 vccd1 vccd1 hold74/X sky130_fd_sc_hd__dlygate4sd3_1
Xhold30 hold30/A vssd1 vssd1 vccd1 vccd1 hold30/X sky130_fd_sc_hd__dlygate4sd3_1
Xhold41 hold41/A vssd1 vssd1 vccd1 vccd1 hold41/X sky130_fd_sc_hd__dlygate4sd3_1
Xhold63 hold63/A vssd1 vssd1 vccd1 vccd1 hold63/X sky130_fd_sc_hd__dlygate4sd3_1
Xhold52 hold52/A vssd1 vssd1 vccd1 vccd1 hold52/X sky130_fd_sc_hd__dlygate4sd3_1
Xhold85 hold85/A vssd1 vssd1 vccd1 vccd1 hold85/X sky130_fd_sc_hd__dlygate4sd3_1
Xhold96 hold96/A vssd1 vssd1 vccd1 vccd1 hold96/X sky130_fd_sc_hd__dlygate4sd3_1
XFILLER_0_41_429 vssd1 vssd1 vccd1 vccd1 sky130_ef_sc_hd__decap_12
XFILLER_0_26_437 vssd1 vssd1 vccd1 vccd1 sky130_fd_sc_hd__decap_4
Xclkbuf_leaf_14_wb_clk_i clkbuf_leaf_9_wb_clk_i/A vssd1 vssd1 vccd1 vccd1 _1266_/CLK
+ sky130_fd_sc_hd__clkbuf_16
XFILLER_0_34_481 vssd1 vssd1 vccd1 vccd1 sky130_fd_sc_hd__fill_2
X_0521_ hold685/X hold313/X _0521_/S vssd1 vssd1 vccd1 vccd1 _0521_/X sky130_fd_sc_hd__mux2_1
XTAP_348 vssd1 vccd1 sky130_fd_sc_hd__tapvpwrvgnd_1
XFILLER_0_21_197 vssd1 vssd1 vccd1 vccd1 sky130_fd_sc_hd__fill_2
XFILLER_0_21_175 vssd1 vssd1 vccd1 vccd1 sky130_fd_sc_hd__fill_1
XTAP_337 vssd1 vccd1 sky130_fd_sc_hd__tapvpwrvgnd_1
XTAP_315 vssd1 vccd1 sky130_fd_sc_hd__tapvpwrvgnd_1
XTAP_326 vssd1 vccd1 sky130_fd_sc_hd__tapvpwrvgnd_1
XTAP_304 vssd1 vccd1 sky130_fd_sc_hd__tapvpwrvgnd_1
XFILLER_0_1_559 vssd1 vssd1 vccd1 vccd1 sky130_fd_sc_hd__fill_1
XTAP_359 vssd1 vccd1 sky130_fd_sc_hd__tapvpwrvgnd_1
XFILLER_0_16_51 vssd1 vssd1 vccd1 vccd1 sky130_fd_sc_hd__decap_8
X_1004_ hold399/X hold494/X _1008_/S vssd1 vssd1 vccd1 vccd1 _1004_/X sky130_fd_sc_hd__mux2_1
XFILLER_0_32_72 vssd1 vssd1 vccd1 vccd1 sky130_fd_sc_hd__fill_2
XANTENNA__0960__S _0976_/S vssd1 vssd1 vccd1 vccd1 sky130_fd_sc_hd__diode_2
XFILLER_0_44_289 vssd1 vssd1 vccd1 vccd1 sky130_fd_sc_hd__fill_2
Xhold544 _0629_/X vssd1 vssd1 vccd1 vccd1 _1125_/D sky130_fd_sc_hd__dlygate4sd3_1
Xhold500 _0943_/X vssd1 vssd1 vccd1 vccd1 _1275_/D sky130_fd_sc_hd__dlygate4sd3_1
Xhold511 _1256_/Q vssd1 vssd1 vccd1 vccd1 hold511/X sky130_fd_sc_hd__dlygate4sd3_1
Xhold533 _1353_/Q vssd1 vssd1 vccd1 vccd1 hold533/X sky130_fd_sc_hd__dlygate4sd3_1
Xhold522 _0958_/X vssd1 vssd1 vccd1 vccd1 _1289_/D sky130_fd_sc_hd__dlygate4sd3_1
XANTENNA__1160__CLK _1359_/CLK vssd1 vssd1 vccd1 vccd1 sky130_fd_sc_hd__diode_2
XFILLER_0_12_164 vssd1 vssd1 vccd1 vccd1 sky130_ef_sc_hd__decap_12
XFILLER_0_4_331 vssd1 vssd1 vccd1 vccd1 sky130_fd_sc_hd__fill_2
XFILLER_0_4_386 vssd1 vssd1 vccd1 vccd1 sky130_fd_sc_hd__fill_2
XFILLER_0_12_120 vssd1 vssd1 vccd1 vccd1 sky130_fd_sc_hd__decap_3
X_0719_ _0718_/X _0717_/X _0771_/S vssd1 vssd1 vccd1 vccd1 _0719_/X sky130_fd_sc_hd__mux2_1
XFILLER_0_12_197 vssd1 vssd1 vccd1 vccd1 sky130_fd_sc_hd__decap_4
XFILLER_0_12_186 vssd1 vssd1 vccd1 vccd1 sky130_fd_sc_hd__fill_2
Xhold555 wbs_adr_i[22] vssd1 vssd1 vccd1 vccd1 input16/A sky130_fd_sc_hd__dlygate4sd3_1
Xhold588 _0864_/Y vssd1 vssd1 vccd1 vccd1 _0865_/B sky130_fd_sc_hd__dlygate4sd3_1
Xhold599 _1172_/Q vssd1 vssd1 vccd1 vccd1 hold599/X sky130_fd_sc_hd__dlygate4sd3_1
Xhold566 _0848_/Y vssd1 vssd1 vccd1 vccd1 _0849_/B sky130_fd_sc_hd__dlygate4sd3_1
Xhold577 _1174_/Q vssd1 vssd1 vccd1 vccd1 hold577/X sky130_fd_sc_hd__dlygate4sd3_1
XANTENNA__0658__S1 _0814_/A vssd1 vssd1 vccd1 vccd1 sky130_fd_sc_hd__diode_2
XANTENNA__1031__S _1033_/S vssd1 vssd1 vccd1 vccd1 sky130_fd_sc_hd__diode_2
XFILLER_0_16_492 vssd1 vssd1 vccd1 vccd1 sky130_fd_sc_hd__fill_1
Xoutput75 _1225_/Q vssd1 vssd1 vccd1 vccd1 wbs_dat_o[14] sky130_fd_sc_hd__buf_12
XFILLER_0_37_39 vssd1 vssd1 vccd1 vccd1 sky130_fd_sc_hd__decap_4
Xoutput86 _1235_/Q vssd1 vssd1 vccd1 vccd1 wbs_dat_o[24] sky130_fd_sc_hd__buf_12
Xoutput97 _1216_/Q vssd1 vssd1 vccd1 vccd1 wbs_dat_o[5] sky130_fd_sc_hd__buf_12
XFILLER_0_41_237 vssd1 vssd1 vccd1 vccd1 sky130_fd_sc_hd__decap_8
XANTENNA__0780__S _0792_/S vssd1 vssd1 vccd1 vccd1 sky130_fd_sc_hd__diode_2
XANTENNA__0649__S1 _0814_/A vssd1 vssd1 vccd1 vccd1 sky130_fd_sc_hd__diode_2
XANTENNA__1183__CLK _1346_/CLK vssd1 vssd1 vccd1 vccd1 sky130_fd_sc_hd__diode_2
XFILLER_0_22_473 vssd1 vssd1 vccd1 vccd1 sky130_fd_sc_hd__fill_1
XTAP_134 vssd1 vccd1 sky130_fd_sc_hd__tapvpwrvgnd_1
XTAP_112 vssd1 vccd1 sky130_fd_sc_hd__tapvpwrvgnd_1
XTAP_123 vssd1 vccd1 sky130_fd_sc_hd__tapvpwrvgnd_1
XTAP_101 vssd1 vccd1 sky130_fd_sc_hd__tapvpwrvgnd_1
XTAP_145 vssd1 vccd1 sky130_fd_sc_hd__tapvpwrvgnd_1
XTAP_156 vssd1 vccd1 sky130_fd_sc_hd__tapvpwrvgnd_1
XTAP_167 vssd1 vccd1 sky130_fd_sc_hd__tapvpwrvgnd_1
XTAP_178 vssd1 vccd1 sky130_fd_sc_hd__tapvpwrvgnd_1
XTAP_189 vssd1 vccd1 sky130_fd_sc_hd__tapvpwrvgnd_1
XANTENNA__0955__S _0961_/S vssd1 vssd1 vccd1 vccd1 sky130_fd_sc_hd__diode_2
XFILLER_0_43_82 vssd1 vssd1 vccd1 vccd1 sky130_fd_sc_hd__fill_2
XFILLER_0_17_223 vssd1 vssd1 vccd1 vccd1 sky130_fd_sc_hd__fill_1
XFILLER_0_9_467 vssd1 vssd1 vccd1 vccd1 sky130_fd_sc_hd__fill_1
Xhold341 _1200_/Q vssd1 vssd1 vccd1 vccd1 hold341/X sky130_fd_sc_hd__dlygate4sd3_1
XFILLER_0_32_248 vssd1 vssd1 vccd1 vccd1 sky130_fd_sc_hd__fill_2
Xhold363 _0795_/X vssd1 vssd1 vccd1 vccd1 _1193_/D sky130_fd_sc_hd__dlygate4sd3_1
Xhold396 _1082_/Q vssd1 vssd1 vccd1 vccd1 hold396/X sky130_fd_sc_hd__dlygate4sd3_1
Xhold374 _1086_/Q vssd1 vssd1 vccd1 vccd1 hold374/X sky130_fd_sc_hd__dlygate4sd3_1
Xhold352 _1021_/X vssd1 vssd1 vccd1 vccd1 _1351_/D sky130_fd_sc_hd__dlygate4sd3_1
XFILLER_0_4_172 vssd1 vssd1 vccd1 vccd1 sky130_fd_sc_hd__fill_2
Xhold385 _0565_/X vssd1 vssd1 vccd1 vccd1 _1063_/D sky130_fd_sc_hd__dlygate4sd3_1
Xhold330 _1067_/Q vssd1 vssd1 vccd1 vccd1 hold330/X sky130_fd_sc_hd__dlygate4sd3_1
XANTENNA__1026__S _1033_/S vssd1 vssd1 vccd1 vccd1 sky130_fd_sc_hd__diode_2
XANTENNA__1056__CLK _1346_/CLK vssd1 vssd1 vccd1 vccd1 sky130_fd_sc_hd__diode_2
XFILLER_0_36_587 vssd1 vssd1 vccd1 vccd1 sky130_fd_sc_hd__fill_1
XFILLER_0_23_237 vssd1 vssd1 vccd1 vccd1 sky130_fd_sc_hd__decap_3
XANTENNA__0775__S _0775_/S vssd1 vssd1 vccd1 vccd1 sky130_fd_sc_hd__diode_2
XANTENNA__0892__B1 _0908_/B1 vssd1 vssd1 vccd1 vccd1 sky130_fd_sc_hd__diode_2
XFILLER_0_27_521 vssd1 vssd1 vccd1 vccd1 sky130_fd_sc_hd__fill_2
X_0984_ hold137/X hold669/X _0994_/S vssd1 vssd1 vccd1 vccd1 _0984_/X sky130_fd_sc_hd__mux2_1
XFILLER_0_6_415 vssd1 vssd1 vccd1 vccd1 sky130_fd_sc_hd__decap_3
XFILLER_0_14_215 vssd1 vssd1 vccd1 vccd1 sky130_fd_sc_hd__decap_4
XFILLER_0_10_421 vssd1 vssd1 vccd1 vccd1 sky130_fd_sc_hd__decap_6
XFILLER_0_38_82 vssd1 vssd1 vccd1 vccd1 sky130_fd_sc_hd__fill_2
Xfanout106 _1008_/S vssd1 vssd1 vccd1 vccd1 _0994_/S sky130_fd_sc_hd__buf_6
Xfanout139 input1/X vssd1 vssd1 vccd1 vccd1 _0907_/A sky130_fd_sc_hd__buf_4
Xfanout117 _0614_/S vssd1 vssd1 vccd1 vccd1 _0612_/S sky130_fd_sc_hd__buf_8
Xfanout128 _0757_/S1 vssd1 vssd1 vccd1 vccd1 _0734_/S1 sky130_fd_sc_hd__clkbuf_8
XFILLER_0_45_373 vssd1 vssd1 vccd1 vccd1 sky130_ef_sc_hd__decap_12
XFILLER_0_33_579 vssd1 vssd1 vccd1 vccd1 sky130_fd_sc_hd__fill_2
XFILLER_0_33_524 vssd1 vssd1 vccd1 vccd1 sky130_ef_sc_hd__decap_12
XANTENNA__0730__S0 _0734_/S0 vssd1 vssd1 vccd1 vccd1 sky130_fd_sc_hd__diode_2
Xhold193 _0632_/X vssd1 vssd1 vccd1 vccd1 _1128_/D sky130_fd_sc_hd__dlygate4sd3_1
Xhold182 _1260_/Q vssd1 vssd1 vccd1 vccd1 hold182/X sky130_fd_sc_hd__dlygate4sd3_1
XFILLER_0_13_281 vssd1 vssd1 vccd1 vccd1 sky130_fd_sc_hd__fill_2
Xhold171 _0612_/X vssd1 vssd1 vccd1 vccd1 _1109_/D sky130_fd_sc_hd__dlygate4sd3_1
Xhold160 _1069_/Q vssd1 vssd1 vccd1 vccd1 hold160/X sky130_fd_sc_hd__dlygate4sd3_1
XANTENNA__0595__S _0614_/S vssd1 vssd1 vccd1 vccd1 sky130_fd_sc_hd__diode_2
XFILLER_0_34_29 vssd1 vssd1 vccd1 vccd1 sky130_fd_sc_hd__decap_8
XANTENNA__0874__B1 _0878_/B1 vssd1 vssd1 vccd1 vccd1 sky130_fd_sc_hd__diode_2
XANTENNA__0721__S0 _0734_/S0 vssd1 vssd1 vccd1 vccd1 sky130_fd_sc_hd__diode_2
XFILLER_0_28_307 vssd1 vssd1 vccd1 vccd1 sky130_fd_sc_hd__fill_1
X_1321_ _1321_/CLK _1321_/D vssd1 vssd1 vccd1 vccd1 _1321_/Q sky130_fd_sc_hd__dfxtp_1
X_1252_ _1351_/CLK _1252_/D vssd1 vssd1 vccd1 vccd1 _1252_/Q sky130_fd_sc_hd__dfxtp_1
XFILLER_0_24_73 vssd1 vssd1 vccd1 vccd1 sky130_fd_sc_hd__fill_2
XFILLER_0_24_51 vssd1 vssd1 vccd1 vccd1 sky130_fd_sc_hd__fill_2
X_1183_ _1346_/CLK hold49/X vssd1 vssd1 vccd1 vccd1 _1183_/Q sky130_fd_sc_hd__dfxtp_1
XFILLER_0_46_137 vssd1 vssd1 vccd1 vccd1 sky130_fd_sc_hd__decap_3
XFILLER_0_42_365 vssd1 vssd1 vccd1 vccd1 sky130_ef_sc_hd__decap_12
XFILLER_0_24_95 vssd1 vssd1 vccd1 vccd1 sky130_fd_sc_hd__fill_2
X_0967_ hold54/X hold45/X _0976_/S vssd1 vssd1 vccd1 vccd1 hold55/A sky130_fd_sc_hd__mux2_1
XFILLER_0_15_502 vssd1 vssd1 vccd1 vccd1 sky130_fd_sc_hd__fill_2
XFILLER_0_6_201 vssd1 vssd1 vccd1 vccd1 sky130_fd_sc_hd__decap_4
XFILLER_0_6_289 vssd1 vssd1 vccd1 vccd1 sky130_fd_sc_hd__decap_6
X_0898_ _1237_/Q _0906_/A2 _0908_/B1 hold583/X vssd1 vssd1 vccd1 vccd1 _0898_/Y sky130_fd_sc_hd__a22oi_1
XANTENNA_fanout118_A _0613_/S vssd1 vssd1 vccd1 vccd1 sky130_fd_sc_hd__diode_2
XANTENNA__0856__B1 _0878_/B1 vssd1 vssd1 vccd1 vccd1 sky130_fd_sc_hd__diode_2
XFILLER_0_4_72 vssd1 vssd1 vccd1 vccd1 sky130_fd_sc_hd__fill_2
XFILLER_0_37_148 vssd1 vssd1 vccd1 vccd1 sky130_fd_sc_hd__fill_2
XFILLER_0_18_351 vssd1 vssd1 vccd1 vccd1 sky130_ef_sc_hd__decap_12
XFILLER_0_45_181 vssd1 vssd1 vccd1 vccd1 sky130_fd_sc_hd__decap_6
XFILLER_0_33_387 vssd1 vssd1 vccd1 vccd1 sky130_fd_sc_hd__decap_3
XFILLER_0_33_354 vssd1 vssd1 vccd1 vccd1 sky130_fd_sc_hd__fill_1
XFILLER_0_21_505 vssd1 vssd1 vccd1 vccd1 sky130_fd_sc_hd__decap_8
XFILLER_0_45_39 vssd1 vssd1 vccd1 vccd1 sky130_ef_sc_hd__decap_12
XFILLER_0_43_129 vssd1 vssd1 vccd1 vccd1 sky130_fd_sc_hd__decap_3
X_0752_ hold701/X hold573/X _0772_/S vssd1 vssd1 vccd1 vccd1 _1169_/D sky130_fd_sc_hd__mux2_1
XFILLER_0_24_332 vssd1 vssd1 vccd1 vccd1 sky130_fd_sc_hd__fill_2
X_0821_ _0821_/A _0821_/B vssd1 vssd1 vccd1 vccd1 _0825_/C sky130_fd_sc_hd__xor2_1
XFILLER_0_24_365 vssd1 vssd1 vccd1 vccd1 sky130_ef_sc_hd__decap_12
X_0683_ _0682_/X _0681_/X _0775_/S vssd1 vssd1 vccd1 vccd1 _0683_/X sky130_fd_sc_hd__mux2_1
XFILLER_0_20_593 vssd1 vssd1 vccd1 vccd1 sky130_fd_sc_hd__decap_3
X_1304_ _1337_/CLK _1304_/D vssd1 vssd1 vccd1 vccd1 _1304_/Q sky130_fd_sc_hd__dfxtp_1
X_1235_ _1272_/CLK _1235_/D vssd1 vssd1 vccd1 vccd1 _1235_/Q sky130_fd_sc_hd__dfxtp_1
X_1166_ _1272_/CLK _1166_/D vssd1 vssd1 vccd1 vccd1 _1166_/Q sky130_fd_sc_hd__dfxtp_1
X_1097_ _1358_/CLK _1097_/D vssd1 vssd1 vccd1 vccd1 _1097_/Q sky130_fd_sc_hd__dfxtp_1
XANTENNA__0963__S _0976_/S vssd1 vssd1 vccd1 vccd1 sky130_fd_sc_hd__diode_2
XFILLER_0_42_195 vssd1 vssd1 vccd1 vccd1 sky130_fd_sc_hd__fill_1
XFILLER_0_7_587 vssd1 vssd1 vccd1 vccd1 sky130_fd_sc_hd__fill_2
XANTENNA__0811__A_N _0810_/B vssd1 vssd1 vccd1 vccd1 sky130_fd_sc_hd__diode_2
XFILLER_0_18_170 vssd1 vssd1 vccd1 vccd1 sky130_fd_sc_hd__fill_1
Xwire112 wire112/A vssd1 vssd1 vccd1 vccd1 wire112/X sky130_fd_sc_hd__clkbuf_2
XTAP_519 vssd1 vccd1 sky130_fd_sc_hd__tapvpwrvgnd_1
XTAP_508 vssd1 vccd1 sky130_fd_sc_hd__tapvpwrvgnd_1
XFILLER_0_21_313 vssd1 vssd1 vccd1 vccd1 sky130_fd_sc_hd__fill_2
X_1020_ hold648/X hold18/X _1024_/S vssd1 vssd1 vccd1 vccd1 hold19/A sky130_fd_sc_hd__mux2_1
XANTENNA__0783__S _0792_/S vssd1 vssd1 vccd1 vccd1 sky130_fd_sc_hd__diode_2
XFILLER_0_29_479 vssd1 vssd1 vccd1 vccd1 sky130_fd_sc_hd__fill_2
XFILLER_0_8_307 vssd1 vssd1 vccd1 vccd1 sky130_fd_sc_hd__fill_1
X_0804_ hold399/X hold453/X _0808_/S vssd1 vssd1 vccd1 vccd1 _0804_/X sky130_fd_sc_hd__mux2_1
XFILLER_0_24_195 vssd1 vssd1 vccd1 vccd1 sky130_fd_sc_hd__fill_1
XFILLER_0_21_96 vssd1 vssd1 vccd1 vccd1 sky130_fd_sc_hd__fill_1
Xhold715 _1308_/Q vssd1 vssd1 vccd1 vccd1 hold715/X sky130_fd_sc_hd__dlygate4sd3_1
XFILLER_0_12_313 vssd1 vssd1 vccd1 vccd1 sky130_fd_sc_hd__fill_2
Xhold704 wbs_we_i vssd1 vssd1 vccd1 vccd1 input68/A sky130_fd_sc_hd__dlygate4sd3_1
XFILLER_0_4_524 vssd1 vssd1 vccd1 vccd1 sky130_fd_sc_hd__fill_2
XFILLER_0_4_579 vssd1 vssd1 vccd1 vccd1 sky130_fd_sc_hd__fill_2
X_0735_ _0734_/X _0733_/X _0771_/S vssd1 vssd1 vccd1 vccd1 _0735_/X sky130_fd_sc_hd__mux2_1
XANTENNA__0958__S _0961_/S vssd1 vssd1 vccd1 vccd1 sky130_fd_sc_hd__diode_2
X_0666_ hold372/X _1312_/Q hold214/X hold208/X _0810_/B _0814_/A vssd1 vssd1 vccd1
+ vccd1 _0666_/X sky130_fd_sc_hd__mux4_1