*SPEF "ieee 1481-1999"
*DESIGN "wishbone_nn"
*DATE "11:11:11 Fri 11 11, 1111"
*VENDOR "OpenRCX"
*PROGRAM "Parallel Extraction"
*VERSION "1.0"
*DESIGN_FLOW "NAME_SCOPE LOCAL" "PIN_CAP NONE"
*DIVIDER /
*DELIMITER :
*BUS_DELIMITER []
*T_UNIT 1 NS
*C_UNIT 1 PF
*R_UNIT 1 OHM
*L_UNIT 1 HENRY

*NAME_MAP
*3 wb_clk_i
*4 wb_rst_i
*5 wbs_ack_o
*6 wbs_adr_i[0]
*7 wbs_adr_i[10]
*8 wbs_adr_i[11]
*9 wbs_adr_i[12]
*10 wbs_adr_i[13]
*11 wbs_adr_i[14]
*12 wbs_adr_i[15]
*13 wbs_adr_i[16]
*14 wbs_adr_i[17]
*15 wbs_adr_i[18]
*16 wbs_adr_i[19]
*17 wbs_adr_i[1]
*18 wbs_adr_i[20]
*19 wbs_adr_i[21]
*20 wbs_adr_i[22]
*21 wbs_adr_i[23]
*22 wbs_adr_i[24]
*23 wbs_adr_i[25]
*24 wbs_adr_i[26]
*25 wbs_adr_i[27]
*26 wbs_adr_i[28]
*27 wbs_adr_i[29]
*28 wbs_adr_i[2]
*29 wbs_adr_i[30]
*30 wbs_adr_i[31]
*31 wbs_adr_i[3]
*32 wbs_adr_i[4]
*33 wbs_adr_i[5]
*34 wbs_adr_i[6]
*35 wbs_adr_i[7]
*36 wbs_adr_i[8]
*37 wbs_adr_i[9]
*38 wbs_cyc_i
*39 wbs_dat_i[0]
*40 wbs_dat_i[10]
*41 wbs_dat_i[11]
*42 wbs_dat_i[12]
*43 wbs_dat_i[13]
*44 wbs_dat_i[14]
*45 wbs_dat_i[15]
*46 wbs_dat_i[16]
*47 wbs_dat_i[17]
*48 wbs_dat_i[18]
*49 wbs_dat_i[19]
*50 wbs_dat_i[1]
*51 wbs_dat_i[20]
*52 wbs_dat_i[21]
*53 wbs_dat_i[22]
*54 wbs_dat_i[23]
*55 wbs_dat_i[24]
*56 wbs_dat_i[25]
*57 wbs_dat_i[26]
*58 wbs_dat_i[27]
*59 wbs_dat_i[28]
*60 wbs_dat_i[29]
*61 wbs_dat_i[2]
*62 wbs_dat_i[30]
*63 wbs_dat_i[31]
*64 wbs_dat_i[3]
*65 wbs_dat_i[4]
*66 wbs_dat_i[5]
*67 wbs_dat_i[6]
*68 wbs_dat_i[7]
*69 wbs_dat_i[8]
*70 wbs_dat_i[9]
*71 wbs_dat_o[0]
*72 wbs_dat_o[10]
*73 wbs_dat_o[11]
*74 wbs_dat_o[12]
*75 wbs_dat_o[13]
*76 wbs_dat_o[14]
*77 wbs_dat_o[15]
*78 wbs_dat_o[16]
*79 wbs_dat_o[17]
*80 wbs_dat_o[18]
*81 wbs_dat_o[19]
*82 wbs_dat_o[1]
*83 wbs_dat_o[20]
*84 wbs_dat_o[21]
*85 wbs_dat_o[22]
*86 wbs_dat_o[23]
*87 wbs_dat_o[24]
*88 wbs_dat_o[25]
*89 wbs_dat_o[26]
*90 wbs_dat_o[27]
*91 wbs_dat_o[28]
*92 wbs_dat_o[29]
*93 wbs_dat_o[2]
*94 wbs_dat_o[30]
*95 wbs_dat_o[31]
*96 wbs_dat_o[3]
*97 wbs_dat_o[4]
*98 wbs_dat_o[5]
*99 wbs_dat_o[6]
*100 wbs_dat_o[7]
*101 wbs_dat_o[8]
*102 wbs_dat_o[9]
*103 wbs_sel_i[0]
*104 wbs_sel_i[1]
*105 wbs_sel_i[2]
*106 wbs_sel_i[3]
*107 wbs_stb_i
*108 wbs_we_i
*109 _0000_
*110 _0001_
*111 _0002_
*112 _0003_
*113 _0004_
*114 _0005_
*115 _0006_
*116 _0007_
*117 _0008_
*118 _0009_
*119 _0010_
*120 _0011_
*121 _0012_
*122 _0013_
*123 _0014_
*124 _0015_
*125 _0016_
*126 _0017_
*127 _0018_
*128 _0019_
*129 _0020_
*130 _0021_
*131 _0022_
*132 _0023_
*133 _0024_
*134 _0025_
*135 _0026_
*136 _0027_
*137 _0028_
*138 _0029_
*139 _0030_
*140 _0031_
*141 _0032_
*142 _0033_
*143 _0034_
*144 _0035_
*145 _0036_
*146 _0037_
*147 _0038_
*148 _0039_
*149 _0040_
*150 _0041_
*151 _0042_
*152 _0043_
*153 _0044_
*154 _0045_
*155 _0046_
*156 _0047_
*157 _0048_
*158 _0049_
*159 _0050_
*160 _0051_
*161 _0052_
*162 _0053_
*163 _0054_
*164 _0055_
*165 _0056_
*166 _0057_
*167 _0058_
*168 _0059_
*169 _0060_
*170 _0061_
*171 _0062_
*172 _0063_
*173 _0064_
*174 _0065_
*175 _0066_
*176 _0067_
*177 _0068_
*178 _0069_
*179 _0070_
*180 _0071_
*181 _0072_
*182 _0073_
*183 _0074_
*184 _0075_
*185 _0076_
*186 _0077_
*187 _0078_
*188 _0079_
*189 _0080_
*190 _0081_
*191 _0082_
*192 _0083_
*193 _0084_
*194 _0085_
*195 _0086_
*196 _0087_
*197 _0088_
*198 _0089_
*199 _0090_
*200 _0091_
*201 _0092_
*202 _0093_
*203 _0094_
*204 _0095_
*205 _0096_
*206 _0097_
*207 _0098_
*208 _0099_
*209 _0100_
*210 _0101_
*211 _0102_
*212 _0103_
*213 _0104_
*214 _0105_
*215 _0106_
*216 _0107_
*217 _0108_
*218 _0109_
*219 _0110_
*220 _0111_
*221 _0112_
*222 _0113_
*223 _0114_
*224 _0115_
*225 _0116_
*226 _0117_
*227 _0118_
*228 _0119_
*229 _0120_
*230 _0121_
*231 _0122_
*232 _0123_
*233 _0124_
*234 _0125_
*235 _0126_
*236 _0127_
*237 _0128_
*238 _0129_
*239 _0130_
*240 _0131_
*241 _0132_
*242 _0133_
*243 _0134_
*244 _0135_
*245 _0136_
*246 _0137_
*247 _0138_
*248 _0139_
*249 _0140_
*250 _0141_
*251 _0142_
*252 _0143_
*253 _0144_
*254 _0145_
*255 _0146_
*256 _0147_
*257 _0148_
*258 _0149_
*259 _0150_
*260 _0151_
*261 _0152_
*262 _0153_
*263 _0154_
*264 _0155_
*265 _0156_
*266 _0157_
*267 _0158_
*268 _0159_
*269 _0160_
*270 _0161_
*271 _0162_
*272 _0163_
*273 _0164_
*274 _0165_
*275 _0166_
*276 _0167_
*277 _0168_
*278 _0169_
*279 _0170_
*280 _0171_
*281 _0172_
*282 _0173_
*283 _0174_
*284 _0175_
*285 _0176_
*286 _0177_
*287 _0178_
*288 _0179_
*289 _0180_
*290 _0181_
*291 _0182_
*292 _0183_
*293 _0184_
*294 _0185_
*295 _0186_
*296 _0187_
*297 _0188_
*298 _0189_
*299 _0190_
*300 _0191_
*301 _0192_
*302 _0193_
*303 _0194_
*304 _0195_
*305 _0196_
*306 _0197_
*307 _0198_
*308 _0199_
*309 _0200_
*310 _0201_
*311 _0202_
*312 _0203_
*313 _0204_
*314 _0205_
*315 _0206_
*316 _0207_
*317 _0208_
*318 _0209_
*319 _0210_
*320 _0211_
*321 _0212_
*322 _0213_
*323 _0214_
*324 _0215_
*325 _0216_
*326 _0217_
*327 _0218_
*328 _0219_
*329 _0220_
*330 _0221_
*331 _0222_
*332 _0223_
*333 _0224_
*334 _0225_
*335 _0226_
*336 _0227_
*337 _0228_
*338 _0229_
*339 _0230_
*340 _0231_
*341 _0232_
*342 _0233_
*343 _0234_
*344 _0235_
*345 _0236_
*346 _0237_
*347 _0238_
*348 _0239_
*349 _0240_
*350 _0241_
*351 _0242_
*352 _0243_
*353 _0244_
*354 _0245_
*355 _0246_
*356 _0247_
*357 _0248_
*358 _0249_
*359 _0250_
*360 _0251_
*361 _0252_
*362 _0253_
*363 _0254_
*364 _0255_
*365 _0256_
*366 _0257_
*367 _0258_
*368 _0259_
*369 _0260_
*370 _0261_
*371 _0262_
*372 _0263_
*373 _0264_
*374 _0265_
*375 _0266_
*376 _0267_
*377 _0268_
*378 _0269_
*379 _0270_
*380 _0271_
*381 _0272_
*382 _0273_
*383 _0274_
*384 _0275_
*385 _0276_
*386 _0277_
*387 _0278_
*388 _0279_
*389 _0280_
*390 _0281_
*391 _0282_
*392 _0283_
*393 _0284_
*394 _0285_
*395 _0286_
*396 _0287_
*397 _0288_
*398 _0289_
*399 _0290_
*400 _0291_
*401 _0292_
*402 _0293_
*403 _0294_
*404 _0295_
*405 _0296_
*406 _0297_
*407 _0298_
*408 _0299_
*409 _0300_
*410 _0301_
*411 _0302_
*412 _0303_
*413 _0304_
*414 _0305_
*415 _0306_
*416 _0307_
*417 _0308_
*418 _0309_
*419 _0310_
*420 _0311_
*421 _0312_
*422 _0313_
*423 _0314_
*424 _0315_
*425 _0316_
*426 _0317_
*427 _0318_
*428 _0319_
*429 _0320_
*430 _0321_
*431 _0322_
*432 _0323_
*433 _0324_
*434 _0325_
*435 _0326_
*436 _0327_
*437 _0328_
*438 _0329_
*439 _0330_
*440 _0331_
*441 _0332_
*442 _0333_
*443 _0334_
*444 _0335_
*445 _0336_
*446 _0337_
*447 _0338_
*448 _0339_
*449 _0340_
*450 _0341_
*451 _0342_
*452 _0343_
*453 _0344_
*454 _0345_
*455 _0346_
*456 _0347_
*457 _0348_
*458 _0349_
*459 _0350_
*460 _0351_
*461 _0352_
*462 _0353_
*463 _0354_
*464 _0355_
*465 _0356_
*466 _0357_
*467 _0358_
*468 _0359_
*469 _0360_
*470 _0361_
*471 _0362_
*472 _0363_
*473 _0364_
*474 _0365_
*475 _0366_
*476 _0367_
*477 _0368_
*478 _0369_
*479 _0370_
*480 _0371_
*481 _0372_
*482 _0373_
*483 _0374_
*484 _0375_
*485 _0376_
*486 _0377_
*487 _0378_
*488 _0379_
*489 _0380_
*490 _0381_
*491 _0382_
*492 _0383_
*493 _0384_
*494 _0385_
*495 _0386_
*496 _0387_
*497 _0388_
*498 _0389_
*499 _0390_
*500 _0391_
*501 _0392_
*502 _0393_
*503 _0394_
*504 _0395_
*505 _0396_
*506 _0397_
*507 _0398_
*508 _0399_
*509 _0400_
*510 _0401_
*511 _0402_
*512 _0403_
*513 _0404_
*514 _0405_
*515 _0406_
*516 _0407_
*517 _0408_
*518 _0409_
*519 _0410_
*520 _0411_
*521 _0412_
*522 _0413_
*523 clknet_0_wb_clk_i
*524 clknet_1_0__leaf_wb_clk_i
*525 clknet_1_1__leaf_wb_clk_i
*526 clknet_leaf_0_wb_clk_i
*527 clknet_leaf_10_wb_clk_i
*528 clknet_leaf_11_wb_clk_i
*529 clknet_leaf_1_wb_clk_i
*530 clknet_leaf_2_wb_clk_i
*531 clknet_leaf_3_wb_clk_i
*532 clknet_leaf_4_wb_clk_i
*533 clknet_leaf_5_wb_clk_i
*534 clknet_leaf_6_wb_clk_i
*535 clknet_leaf_7_wb_clk_i
*536 clknet_leaf_8_wb_clk_i
*537 clknet_leaf_9_wb_clk_i
*538 fifo_in\.FIFO\[0\]\[0\]
*539 fifo_in\.FIFO\[0\]\[10\]
*540 fifo_in\.FIFO\[0\]\[11\]
*541 fifo_in\.FIFO\[0\]\[12\]
*542 fifo_in\.FIFO\[0\]\[13\]
*543 fifo_in\.FIFO\[0\]\[14\]
*544 fifo_in\.FIFO\[0\]\[15\]
*545 fifo_in\.FIFO\[0\]\[16\]
*546 fifo_in\.FIFO\[0\]\[17\]
*547 fifo_in\.FIFO\[0\]\[18\]
*548 fifo_in\.FIFO\[0\]\[19\]
*549 fifo_in\.FIFO\[0\]\[1\]
*550 fifo_in\.FIFO\[0\]\[20\]
*551 fifo_in\.FIFO\[0\]\[21\]
*552 fifo_in\.FIFO\[0\]\[22\]
*553 fifo_in\.FIFO\[0\]\[23\]
*554 fifo_in\.FIFO\[0\]\[24\]
*555 fifo_in\.FIFO\[0\]\[25\]
*556 fifo_in\.FIFO\[0\]\[26\]
*557 fifo_in\.FIFO\[0\]\[27\]
*558 fifo_in\.FIFO\[0\]\[28\]
*559 fifo_in\.FIFO\[0\]\[29\]
*560 fifo_in\.FIFO\[0\]\[2\]
*561 fifo_in\.FIFO\[0\]\[30\]
*562 fifo_in\.FIFO\[0\]\[31\]
*563 fifo_in\.FIFO\[0\]\[3\]
*564 fifo_in\.FIFO\[0\]\[4\]
*565 fifo_in\.FIFO\[0\]\[5\]
*566 fifo_in\.FIFO\[0\]\[6\]
*567 fifo_in\.FIFO\[0\]\[7\]
*568 fifo_in\.FIFO\[0\]\[8\]
*569 fifo_in\.FIFO\[0\]\[9\]
*570 fifo_in\.FIFO\[1\]\[0\]
*571 fifo_in\.FIFO\[1\]\[10\]
*572 fifo_in\.FIFO\[1\]\[11\]
*573 fifo_in\.FIFO\[1\]\[12\]
*574 fifo_in\.FIFO\[1\]\[13\]
*575 fifo_in\.FIFO\[1\]\[14\]
*576 fifo_in\.FIFO\[1\]\[15\]
*577 fifo_in\.FIFO\[1\]\[16\]
*578 fifo_in\.FIFO\[1\]\[17\]
*579 fifo_in\.FIFO\[1\]\[18\]
*580 fifo_in\.FIFO\[1\]\[19\]
*581 fifo_in\.FIFO\[1\]\[1\]
*582 fifo_in\.FIFO\[1\]\[20\]
*583 fifo_in\.FIFO\[1\]\[21\]
*584 fifo_in\.FIFO\[1\]\[22\]
*585 fifo_in\.FIFO\[1\]\[23\]
*586 fifo_in\.FIFO\[1\]\[24\]
*587 fifo_in\.FIFO\[1\]\[25\]
*588 fifo_in\.FIFO\[1\]\[26\]
*589 fifo_in\.FIFO\[1\]\[27\]
*590 fifo_in\.FIFO\[1\]\[28\]
*591 fifo_in\.FIFO\[1\]\[29\]
*592 fifo_in\.FIFO\[1\]\[2\]
*593 fifo_in\.FIFO\[1\]\[30\]
*594 fifo_in\.FIFO\[1\]\[31\]
*595 fifo_in\.FIFO\[1\]\[3\]
*596 fifo_in\.FIFO\[1\]\[4\]
*597 fifo_in\.FIFO\[1\]\[5\]
*598 fifo_in\.FIFO\[1\]\[6\]
*599 fifo_in\.FIFO\[1\]\[7\]
*600 fifo_in\.FIFO\[1\]\[8\]
*601 fifo_in\.FIFO\[1\]\[9\]
*602 fifo_in\.FIFO\[2\]\[0\]
*603 fifo_in\.FIFO\[2\]\[10\]
*604 fifo_in\.FIFO\[2\]\[11\]
*605 fifo_in\.FIFO\[2\]\[12\]
*606 fifo_in\.FIFO\[2\]\[13\]
*607 fifo_in\.FIFO\[2\]\[14\]
*608 fifo_in\.FIFO\[2\]\[15\]
*609 fifo_in\.FIFO\[2\]\[16\]
*610 fifo_in\.FIFO\[2\]\[17\]
*611 fifo_in\.FIFO\[2\]\[18\]
*612 fifo_in\.FIFO\[2\]\[19\]
*613 fifo_in\.FIFO\[2\]\[1\]
*614 fifo_in\.FIFO\[2\]\[20\]
*615 fifo_in\.FIFO\[2\]\[21\]
*616 fifo_in\.FIFO\[2\]\[22\]
*617 fifo_in\.FIFO\[2\]\[23\]
*618 fifo_in\.FIFO\[2\]\[24\]
*619 fifo_in\.FIFO\[2\]\[25\]
*620 fifo_in\.FIFO\[2\]\[26\]
*621 fifo_in\.FIFO\[2\]\[27\]
*622 fifo_in\.FIFO\[2\]\[28\]
*623 fifo_in\.FIFO\[2\]\[29\]
*624 fifo_in\.FIFO\[2\]\[2\]
*625 fifo_in\.FIFO\[2\]\[30\]
*626 fifo_in\.FIFO\[2\]\[31\]
*627 fifo_in\.FIFO\[2\]\[3\]
*628 fifo_in\.FIFO\[2\]\[4\]
*629 fifo_in\.FIFO\[2\]\[5\]
*630 fifo_in\.FIFO\[2\]\[6\]
*631 fifo_in\.FIFO\[2\]\[7\]
*632 fifo_in\.FIFO\[2\]\[8\]
*633 fifo_in\.FIFO\[2\]\[9\]
*634 fifo_in\.FIFO\[3\]\[0\]
*635 fifo_in\.FIFO\[3\]\[10\]
*636 fifo_in\.FIFO\[3\]\[11\]
*637 fifo_in\.FIFO\[3\]\[12\]
*638 fifo_in\.FIFO\[3\]\[13\]
*639 fifo_in\.FIFO\[3\]\[14\]
*640 fifo_in\.FIFO\[3\]\[15\]
*641 fifo_in\.FIFO\[3\]\[16\]
*642 fifo_in\.FIFO\[3\]\[17\]
*643 fifo_in\.FIFO\[3\]\[18\]
*644 fifo_in\.FIFO\[3\]\[19\]
*645 fifo_in\.FIFO\[3\]\[1\]
*646 fifo_in\.FIFO\[3\]\[20\]
*647 fifo_in\.FIFO\[3\]\[21\]
*648 fifo_in\.FIFO\[3\]\[22\]
*649 fifo_in\.FIFO\[3\]\[23\]
*650 fifo_in\.FIFO\[3\]\[24\]
*651 fifo_in\.FIFO\[3\]\[25\]
*652 fifo_in\.FIFO\[3\]\[26\]
*653 fifo_in\.FIFO\[3\]\[27\]
*654 fifo_in\.FIFO\[3\]\[28\]
*655 fifo_in\.FIFO\[3\]\[29\]
*656 fifo_in\.FIFO\[3\]\[2\]
*657 fifo_in\.FIFO\[3\]\[30\]
*658 fifo_in\.FIFO\[3\]\[31\]
*659 fifo_in\.FIFO\[3\]\[3\]
*660 fifo_in\.FIFO\[3\]\[4\]
*661 fifo_in\.FIFO\[3\]\[5\]
*662 fifo_in\.FIFO\[3\]\[6\]
*663 fifo_in\.FIFO\[3\]\[7\]
*664 fifo_in\.FIFO\[3\]\[8\]
*665 fifo_in\.FIFO\[3\]\[9\]
*666 fifo_in\.FIFO\[4\]\[0\]
*667 fifo_in\.FIFO\[4\]\[10\]
*668 fifo_in\.FIFO\[4\]\[11\]
*669 fifo_in\.FIFO\[4\]\[12\]
*670 fifo_in\.FIFO\[4\]\[13\]
*671 fifo_in\.FIFO\[4\]\[14\]
*672 fifo_in\.FIFO\[4\]\[15\]
*673 fifo_in\.FIFO\[4\]\[16\]
*674 fifo_in\.FIFO\[4\]\[17\]
*675 fifo_in\.FIFO\[4\]\[18\]
*676 fifo_in\.FIFO\[4\]\[19\]
*677 fifo_in\.FIFO\[4\]\[1\]
*678 fifo_in\.FIFO\[4\]\[20\]
*679 fifo_in\.FIFO\[4\]\[21\]
*680 fifo_in\.FIFO\[4\]\[22\]
*681 fifo_in\.FIFO\[4\]\[23\]
*682 fifo_in\.FIFO\[4\]\[24\]
*683 fifo_in\.FIFO\[4\]\[25\]
*684 fifo_in\.FIFO\[4\]\[26\]
*685 fifo_in\.FIFO\[4\]\[27\]
*686 fifo_in\.FIFO\[4\]\[28\]
*687 fifo_in\.FIFO\[4\]\[29\]
*688 fifo_in\.FIFO\[4\]\[2\]
*689 fifo_in\.FIFO\[4\]\[30\]
*690 fifo_in\.FIFO\[4\]\[31\]
*691 fifo_in\.FIFO\[4\]\[3\]
*692 fifo_in\.FIFO\[4\]\[4\]
*693 fifo_in\.FIFO\[4\]\[5\]
*694 fifo_in\.FIFO\[4\]\[6\]
*695 fifo_in\.FIFO\[4\]\[7\]
*696 fifo_in\.FIFO\[4\]\[8\]
*697 fifo_in\.FIFO\[4\]\[9\]
*698 fifo_in\.FIFO\[5\]\[0\]
*699 fifo_in\.FIFO\[5\]\[10\]
*700 fifo_in\.FIFO\[5\]\[11\]
*701 fifo_in\.FIFO\[5\]\[12\]
*702 fifo_in\.FIFO\[5\]\[13\]
*703 fifo_in\.FIFO\[5\]\[14\]
*704 fifo_in\.FIFO\[5\]\[15\]
*705 fifo_in\.FIFO\[5\]\[16\]
*706 fifo_in\.FIFO\[5\]\[17\]
*707 fifo_in\.FIFO\[5\]\[18\]
*708 fifo_in\.FIFO\[5\]\[19\]
*709 fifo_in\.FIFO\[5\]\[1\]
*710 fifo_in\.FIFO\[5\]\[20\]
*711 fifo_in\.FIFO\[5\]\[21\]
*712 fifo_in\.FIFO\[5\]\[22\]
*713 fifo_in\.FIFO\[5\]\[23\]
*714 fifo_in\.FIFO\[5\]\[24\]
*715 fifo_in\.FIFO\[5\]\[25\]
*716 fifo_in\.FIFO\[5\]\[26\]
*717 fifo_in\.FIFO\[5\]\[27\]
*718 fifo_in\.FIFO\[5\]\[28\]
*719 fifo_in\.FIFO\[5\]\[29\]
*720 fifo_in\.FIFO\[5\]\[2\]
*721 fifo_in\.FIFO\[5\]\[30\]
*722 fifo_in\.FIFO\[5\]\[31\]
*723 fifo_in\.FIFO\[5\]\[3\]
*724 fifo_in\.FIFO\[5\]\[4\]
*725 fifo_in\.FIFO\[5\]\[5\]
*726 fifo_in\.FIFO\[5\]\[6\]
*727 fifo_in\.FIFO\[5\]\[7\]
*728 fifo_in\.FIFO\[5\]\[8\]
*729 fifo_in\.FIFO\[5\]\[9\]
*730 fifo_in\.FIFO\[6\]\[0\]
*731 fifo_in\.FIFO\[6\]\[10\]
*732 fifo_in\.FIFO\[6\]\[11\]
*733 fifo_in\.FIFO\[6\]\[12\]
*734 fifo_in\.FIFO\[6\]\[13\]
*735 fifo_in\.FIFO\[6\]\[14\]
*736 fifo_in\.FIFO\[6\]\[15\]
*737 fifo_in\.FIFO\[6\]\[16\]
*738 fifo_in\.FIFO\[6\]\[17\]
*739 fifo_in\.FIFO\[6\]\[18\]
*740 fifo_in\.FIFO\[6\]\[19\]
*741 fifo_in\.FIFO\[6\]\[1\]
*742 fifo_in\.FIFO\[6\]\[20\]
*743 fifo_in\.FIFO\[6\]\[21\]
*744 fifo_in\.FIFO\[6\]\[22\]
*745 fifo_in\.FIFO\[6\]\[23\]
*746 fifo_in\.FIFO\[6\]\[24\]
*747 fifo_in\.FIFO\[6\]\[25\]
*748 fifo_in\.FIFO\[6\]\[26\]
*749 fifo_in\.FIFO\[6\]\[27\]
*750 fifo_in\.FIFO\[6\]\[28\]
*751 fifo_in\.FIFO\[6\]\[29\]
*752 fifo_in\.FIFO\[6\]\[2\]
*753 fifo_in\.FIFO\[6\]\[30\]
*754 fifo_in\.FIFO\[6\]\[31\]
*755 fifo_in\.FIFO\[6\]\[3\]
*756 fifo_in\.FIFO\[6\]\[4\]
*757 fifo_in\.FIFO\[6\]\[5\]
*758 fifo_in\.FIFO\[6\]\[6\]
*759 fifo_in\.FIFO\[6\]\[7\]
*760 fifo_in\.FIFO\[6\]\[8\]
*761 fifo_in\.FIFO\[6\]\[9\]
*762 fifo_in\.FIFO\[7\]\[0\]
*763 fifo_in\.FIFO\[7\]\[10\]
*764 fifo_in\.FIFO\[7\]\[11\]
*765 fifo_in\.FIFO\[7\]\[12\]
*766 fifo_in\.FIFO\[7\]\[13\]
*767 fifo_in\.FIFO\[7\]\[14\]
*768 fifo_in\.FIFO\[7\]\[15\]
*769 fifo_in\.FIFO\[7\]\[16\]
*770 fifo_in\.FIFO\[7\]\[17\]
*771 fifo_in\.FIFO\[7\]\[18\]
*772 fifo_in\.FIFO\[7\]\[19\]
*773 fifo_in\.FIFO\[7\]\[1\]
*774 fifo_in\.FIFO\[7\]\[20\]
*775 fifo_in\.FIFO\[7\]\[21\]
*776 fifo_in\.FIFO\[7\]\[22\]
*777 fifo_in\.FIFO\[7\]\[23\]
*778 fifo_in\.FIFO\[7\]\[24\]
*779 fifo_in\.FIFO\[7\]\[25\]
*780 fifo_in\.FIFO\[7\]\[26\]
*781 fifo_in\.FIFO\[7\]\[27\]
*782 fifo_in\.FIFO\[7\]\[28\]
*783 fifo_in\.FIFO\[7\]\[29\]
*784 fifo_in\.FIFO\[7\]\[2\]
*785 fifo_in\.FIFO\[7\]\[30\]
*786 fifo_in\.FIFO\[7\]\[31\]
*787 fifo_in\.FIFO\[7\]\[3\]
*788 fifo_in\.FIFO\[7\]\[4\]
*789 fifo_in\.FIFO\[7\]\[5\]
*790 fifo_in\.FIFO\[7\]\[6\]
*791 fifo_in\.FIFO\[7\]\[7\]
*792 fifo_in\.FIFO\[7\]\[8\]
*793 fifo_in\.FIFO\[7\]\[9\]
*794 fifo_in\.count\[0\]
*795 fifo_in\.count\[1\]
*796 fifo_in\.count\[2\]
*797 fifo_in\.read_addr\[0\]
*798 fifo_in\.read_addr\[1\]
*799 fifo_in\.read_addr\[2\]
*800 fifo_in\.write_addr\[0\]
*801 fifo_in\.write_addr\[1\]
*802 fifo_in\.write_addr\[2\]
*803 net1
*804 net10
*805 net100
*806 net101
*807 net102
*808 net103
*809 net104
*810 net105
*811 net106
*812 net107
*813 net108
*814 net109
*815 net11
*816 net110
*817 net111
*818 net112
*819 net113
*820 net114
*821 net115
*822 net116
*823 net117
*824 net118
*825 net119
*826 net12
*827 net120
*828 net121
*829 net122
*830 net123
*831 net124
*832 net125
*833 net126
*834 net127
*835 net128
*836 net129
*837 net13
*838 net130
*839 net131
*840 net132
*841 net133
*842 net134
*843 net135
*844 net136
*845 net137
*846 net138
*847 net139
*848 net14
*849 net140
*850 net141
*851 net142
*852 net143
*853 net144
*854 net145
*855 net146
*856 net147
*857 net148
*858 net149
*859 net15
*860 net150
*861 net151
*862 net152
*863 net153
*864 net154
*865 net155
*866 net156
*867 net157
*868 net158
*869 net159
*870 net16
*871 net160
*872 net161
*873 net162
*874 net163
*875 net164
*876 net165
*877 net166
*878 net167
*879 net168
*880 net169
*881 net17
*882 net170
*883 net171
*884 net172
*885 net173
*886 net174
*887 net175
*888 net176
*889 net177
*890 net178
*891 net179
*892 net18
*893 net180
*894 net181
*895 net182
*896 net183
*897 net184
*898 net185
*899 net186
*900 net187
*901 net188
*902 net189
*903 net19
*904 net190
*905 net191
*906 net192
*907 net193
*908 net194
*909 net195
*910 net196
*911 net197
*912 net198
*913 net199
*914 net2
*915 net20
*916 net200
*917 net201
*918 net202
*919 net203
*920 net204
*921 net205
*922 net206
*923 net207
*924 net208
*925 net209
*926 net21
*927 net210
*928 net211
*929 net212
*930 net213
*931 net214
*932 net215
*933 net216
*934 net217
*935 net218
*936 net219
*937 net22
*938 net220
*939 net221
*940 net222
*941 net223
*942 net224
*943 net225
*944 net226
*945 net227
*946 net228
*947 net229
*948 net23
*949 net230
*950 net231
*951 net232
*952 net233
*953 net234
*954 net235
*955 net236
*956 net237
*957 net238
*958 net239
*959 net24
*960 net240
*961 net241
*962 net242
*963 net243
*964 net244
*965 net245
*966 net246
*967 net247
*968 net248
*969 net249
*970 net25
*971 net250
*972 net251
*973 net252
*974 net253
*975 net254
*976 net255
*977 net256
*978 net257
*979 net258
*980 net259
*981 net26
*982 net260
*983 net261
*984 net262
*985 net263
*986 net264
*987 net265
*988 net266
*989 net267
*990 net268
*991 net269
*992 net27
*993 net270
*994 net271
*995 net272
*996 net273
*997 net274
*998 net275
*999 net276
*1000 net277
*1001 net278
*1002 net279
*1003 net28
*1004 net280
*1005 net281
*1006 net282
*1007 net283
*1008 net284
*1009 net285
*1010 net286
*1011 net287
*1012 net288
*1013 net289
*1014 net29
*1015 net290
*1016 net291
*1017 net292
*1018 net293
*1019 net294
*1020 net295
*1021 net296
*1022 net297
*1023 net298
*1024 net299
*1025 net3
*1026 net30
*1027 net300
*1028 net301
*1029 net302
*1030 net303
*1031 net304
*1032 net305
*1033 net306
*1034 net307
*1035 net308
*1036 net309
*1037 net31
*1038 net310
*1039 net311
*1040 net312
*1041 net313
*1042 net314
*1043 net315
*1044 net316
*1045 net317
*1046 net318
*1047 net319
*1048 net32
*1049 net320
*1050 net321
*1051 net322
*1052 net323
*1053 net324
*1054 net325
*1055 net326
*1056 net327
*1057 net328
*1058 net329
*1059 net33
*1060 net330
*1061 net331
*1062 net332
*1063 net333
*1064 net334
*1065 net335
*1066 net336
*1067 net337
*1068 net338
*1069 net339
*1070 net34
*1071 net340
*1072 net341
*1073 net342
*1074 net343
*1075 net344
*1076 net345
*1077 net346
*1078 net347
*1079 net348
*1080 net349
*1081 net35
*1082 net350
*1083 net351
*1084 net352
*1085 net353
*1086 net354
*1087 net355
*1088 net356
*1089 net357
*1090 net358
*1091 net359
*1092 net36
*1093 net360
*1094 net361
*1095 net362
*1096 net363
*1097 net364
*1098 net365
*1099 net366
*1100 net367
*1101 net368
*1102 net369
*1103 net37
*1104 net370
*1105 net371
*1106 net372
*1107 net373
*1108 net374
*1109 net375
*1110 net376
*1111 net377
*1112 net378
*1113 net379
*1114 net38
*1115 net380
*1116 net381
*1117 net382
*1118 net383
*1119 net384
*1120 net385
*1121 net386
*1122 net387
*1123 net388
*1124 net389
*1125 net39
*1126 net390
*1127 net391
*1128 net392
*1129 net393
*1130 net394
*1131 net395
*1132 net396
*1133 net397
*1134 net398
*1135 net399
*1136 net4
*1137 net40
*1138 net400
*1139 net401
*1140 net402
*1141 net403
*1142 net404
*1143 net405
*1144 net406
*1145 net407
*1146 net408
*1147 net409
*1148 net41
*1149 net410
*1150 net411
*1151 net412
*1152 net413
*1153 net414
*1154 net415
*1155 net416
*1156 net417
*1157 net418
*1158 net419
*1159 net42
*1160 net420
*1161 net421
*1162 net422
*1163 net423
*1164 net424
*1165 net425
*1166 net426
*1167 net427
*1168 net428
*1169 net429
*1170 net43
*1171 net430
*1172 net431
*1173 net432
*1174 net433
*1175 net434
*1176 net435
*1177 net436
*1178 net437
*1179 net438
*1180 net439
*1181 net44
*1182 net440
*1183 net441
*1184 net442
*1185 net443
*1186 net444
*1187 net445
*1188 net446
*1189 net447
*1190 net448
*1191 net449
*1192 net45
*1193 net450
*1194 net451
*1195 net452
*1196 net453
*1197 net454
*1198 net455
*1199 net456
*1200 net457
*1201 net458
*1202 net459
*1203 net46
*1204 net460
*1205 net461
*1206 net462
*1207 net463
*1208 net464
*1209 net465
*1210 net466
*1211 net467
*1212 net468
*1213 net469
*1214 net47
*1215 net470
*1216 net471
*1217 net472
*1218 net473
*1219 net474
*1220 net475
*1221 net476
*1222 net477
*1223 net478
*1224 net479
*1225 net48
*1226 net480
*1227 net481
*1228 net482
*1229 net483
*1230 net484
*1231 net485
*1232 net486
*1233 net487
*1234 net488
*1235 net489
*1236 net49
*1237 net490
*1238 net491
*1239 net492
*1240 net493
*1241 net494
*1242 net495
*1243 net496
*1244 net497
*1245 net498
*1246 net499
*1247 net5
*1248 net50
*1249 net500
*1250 net501
*1251 net502
*1252 net503
*1253 net504
*1254 net505
*1255 net506
*1256 net507
*1257 net508
*1258 net509
*1259 net51
*1260 net510
*1261 net511
*1262 net512
*1263 net513
*1264 net514
*1265 net515
*1266 net516
*1267 net517
*1268 net518
*1269 net519
*1270 net52
*1271 net520
*1272 net521
*1273 net522
*1274 net523
*1275 net524
*1276 net525
*1277 net526
*1278 net527
*1279 net528
*1280 net529
*1281 net53
*1282 net530
*1283 net531
*1284 net532
*1285 net533
*1286 net534
*1287 net535
*1288 net536
*1289 net537
*1290 net538
*1291 net539
*1292 net54
*1293 net540
*1294 net541
*1295 net542
*1296 net543
*1297 net544
*1298 net545
*1299 net546
*1300 net547
*1301 net548
*1302 net549
*1303 net55
*1304 net550
*1305 net551
*1306 net552
*1307 net553
*1308 net554
*1309 net555
*1310 net556
*1311 net557
*1312 net558
*1313 net559
*1314 net56
*1315 net560
*1316 net561
*1317 net562
*1318 net563
*1319 net564
*1320 net565
*1321 net566
*1322 net567
*1323 net568
*1324 net569
*1325 net57
*1326 net570
*1327 net571
*1328 net572
*1329 net573
*1330 net574
*1331 net575
*1332 net576
*1333 net577
*1334 net578
*1335 net579
*1336 net58
*1337 net580
*1338 net581
*1339 net582
*1340 net583
*1341 net584
*1342 net585
*1343 net586
*1344 net587
*1345 net588
*1346 net589
*1347 net59
*1348 net590
*1349 net591
*1350 net592
*1351 net593
*1352 net594
*1353 net595
*1354 net596
*1355 net597
*1356 net598
*1357 net599
*1358 net6
*1359 net60
*1360 net600
*1361 net601
*1362 net602
*1363 net603
*1364 net604
*1365 net605
*1366 net606
*1367 net607
*1368 net608
*1369 net609
*1370 net61
*1371 net610
*1372 net611
*1373 net612
*1374 net613
*1375 net614
*1376 net615
*1377 net616
*1378 net617
*1379 net618
*1380 net619
*1381 net62
*1382 net620
*1383 net621
*1384 net622
*1385 net623
*1386 net624
*1387 net625
*1388 net626
*1389 net627
*1390 net628
*1391 net629
*1392 net63
*1393 net630
*1394 net631
*1395 net632
*1396 net633
*1397 net634
*1398 net635
*1399 net636
*1400 net637
*1401 net638
*1402 net639
*1403 net64
*1404 net640
*1405 net641
*1406 net642
*1407 net643
*1408 net644
*1409 net645
*1410 net646
*1411 net647
*1412 net648
*1413 net649
*1414 net65
*1415 net650
*1416 net651
*1417 net652
*1418 net653
*1419 net654
*1420 net655
*1421 net656
*1422 net657
*1423 net658
*1424 net659
*1425 net66
*1426 net660
*1427 net661
*1428 net662
*1429 net663
*1430 net664
*1431 net665
*1432 net666
*1433 net667
*1434 net668
*1435 net669
*1436 net67
*1437 net670
*1438 net671
*1439 net672
*1440 net673
*1441 net674
*1442 net675
*1443 net676
*1444 net677
*1445 net678
*1446 net679
*1447 net68
*1448 net680
*1449 net681
*1450 net682
*1451 net683
*1452 net684
*1453 net685
*1454 net686
*1455 net687
*1456 net688
*1457 net689
*1458 net69
*1459 net690
*1460 net691
*1461 net692
*1462 net693
*1463 net694
*1464 net695
*1465 net696
*1466 net697
*1467 net698
*1468 net699
*1469 net7
*1470 net70
*1471 net700
*1472 net701
*1473 net702
*1474 net703
*1475 net704
*1476 net705
*1477 net706
*1478 net707
*1479 net708
*1480 net709
*1481 net71
*1482 net710
*1483 net711
*1484 net712
*1485 net713
*1486 net714
*1487 net715
*1488 net716
*1489 net717
*1490 net718
*1491 net719
*1492 net72
*1493 net720
*1494 net721
*1495 net722
*1496 net73
*1497 net74
*1498 net75
*1499 net76
*1500 net77
*1501 net78
*1502 net79
*1503 net8
*1504 net80
*1505 net81
*1506 net82
*1507 net83
*1508 net84
*1509 net85
*1510 net86
*1511 net87
*1512 net88
*1513 net89
*1514 net9
*1515 net90
*1516 net91
*1517 net92
*1518 net93
*1519 net94
*1520 net95
*1521 net96
*1522 net97
*1523 net98
*1524 net99
*1525 ANTENNA_1
*1526 ANTENNA__0424__C
*1527 ANTENNA__0426__B
*1528 ANTENNA__0427__S0
*1529 ANTENNA__0427__S1
*1530 ANTENNA__0428__S0
*1531 ANTENNA__0428__S1
*1532 ANTENNA__0429__S
*1533 ANTENNA__0430__A
*1534 ANTENNA__0431__S0
*1535 ANTENNA__0431__S1
*1536 ANTENNA__0432__S0
*1537 ANTENNA__0432__S1
*1538 ANTENNA__0433__S
*1539 ANTENNA__0434__A
*1540 ANTENNA__0435__S0
*1541 ANTENNA__0435__S1
*1542 ANTENNA__0436__S0
*1543 ANTENNA__0436__S1
*1544 ANTENNA__0437__S
*1545 ANTENNA__0438__A
*1546 ANTENNA__0439__S0
*1547 ANTENNA__0439__S1
*1548 ANTENNA__0440__S0
*1549 ANTENNA__0440__S1
*1550 ANTENNA__0441__S
*1551 ANTENNA__0442__A
*1552 ANTENNA__0443__S0
*1553 ANTENNA__0443__S1
*1554 ANTENNA__0444__S0
*1555 ANTENNA__0444__S1
*1556 ANTENNA__0445__S
*1557 ANTENNA__0446__A
*1558 ANTENNA__0447__S0
*1559 ANTENNA__0447__S1
*1560 ANTENNA__0448__S0
*1561 ANTENNA__0448__S1
*1562 ANTENNA__0449__S
*1563 ANTENNA__0450__A
*1564 ANTENNA__0451__S0
*1565 ANTENNA__0451__S1
*1566 ANTENNA__0452__S0
*1567 ANTENNA__0452__S1
*1568 ANTENNA__0453__S
*1569 ANTENNA__0454__A
*1570 ANTENNA__0455__S0
*1571 ANTENNA__0455__S1
*1572 ANTENNA__0456__S0
*1573 ANTENNA__0456__S1
*1574 ANTENNA__0457__S
*1575 ANTENNA__0458__A
*1576 ANTENNA__0459__S0
*1577 ANTENNA__0459__S1
*1578 ANTENNA__0460__S0
*1579 ANTENNA__0460__S1
*1580 ANTENNA__0461__S
*1581 ANTENNA__0462__A
*1582 ANTENNA__0463__S0
*1583 ANTENNA__0463__S1
*1584 ANTENNA__0464__S0
*1585 ANTENNA__0464__S1
*1586 ANTENNA__0465__S
*1587 ANTENNA__0466__A
*1588 ANTENNA__0467__S0
*1589 ANTENNA__0467__S1
*1590 ANTENNA__0468__S0
*1591 ANTENNA__0468__S1
*1592 ANTENNA__0469__S
*1593 ANTENNA__0470__A
*1594 ANTENNA__0471__S0
*1595 ANTENNA__0471__S1
*1596 ANTENNA__0472__S0
*1597 ANTENNA__0472__S1
*1598 ANTENNA__0473__S
*1599 ANTENNA__0474__A
*1600 ANTENNA__0475__S0
*1601 ANTENNA__0475__S1
*1602 ANTENNA__0476__S0
*1603 ANTENNA__0476__S1
*1604 ANTENNA__0477__S
*1605 ANTENNA__0478__A
*1606 ANTENNA__0479__S0
*1607 ANTENNA__0479__S1
*1608 ANTENNA__0480__S0
*1609 ANTENNA__0480__S1
*1610 ANTENNA__0481__S
*1611 ANTENNA__0482__A
*1612 ANTENNA__0483__S0
*1613 ANTENNA__0483__S1
*1614 ANTENNA__0484__S0
*1615 ANTENNA__0484__S1
*1616 ANTENNA__0485__S
*1617 ANTENNA__0486__A
*1618 ANTENNA__0487__S0
*1619 ANTENNA__0487__S1
*1620 ANTENNA__0488__S0
*1621 ANTENNA__0488__S1
*1622 ANTENNA__0489__S
*1623 ANTENNA__0490__A
*1624 ANTENNA__0491__S0
*1625 ANTENNA__0491__S1
*1626 ANTENNA__0492__S0
*1627 ANTENNA__0492__S1
*1628 ANTENNA__0493__S
*1629 ANTENNA__0494__A
*1630 ANTENNA__0495__S0
*1631 ANTENNA__0495__S1
*1632 ANTENNA__0496__S0
*1633 ANTENNA__0496__S1
*1634 ANTENNA__0497__S
*1635 ANTENNA__0498__A
*1636 ANTENNA__0499__S0
*1637 ANTENNA__0499__S1
*1638 ANTENNA__0500__S0
*1639 ANTENNA__0500__S1
*1640 ANTENNA__0501__S
*1641 ANTENNA__0502__A
*1642 ANTENNA__0503__S0
*1643 ANTENNA__0503__S1
*1644 ANTENNA__0504__S0
*1645 ANTENNA__0504__S1
*1646 ANTENNA__0505__S
*1647 ANTENNA__0506__A
*1648 ANTENNA__0507__S0
*1649 ANTENNA__0507__S1
*1650 ANTENNA__0508__S0
*1651 ANTENNA__0508__S1
*1652 ANTENNA__0509__S
*1653 ANTENNA__0510__A
*1654 ANTENNA__0511__S0
*1655 ANTENNA__0511__S1
*1656 ANTENNA__0512__S0
*1657 ANTENNA__0512__S1
*1658 ANTENNA__0513__S
*1659 ANTENNA__0514__A
*1660 ANTENNA__0515__S0
*1661 ANTENNA__0515__S1
*1662 ANTENNA__0516__S0
*1663 ANTENNA__0516__S1
*1664 ANTENNA__0517__S
*1665 ANTENNA__0518__A
*1666 ANTENNA__0519__S0
*1667 ANTENNA__0519__S1
*1668 ANTENNA__0520__S0
*1669 ANTENNA__0520__S1
*1670 ANTENNA__0521__S
*1671 ANTENNA__0522__A
*1672 ANTENNA__0523__S0
*1673 ANTENNA__0523__S1
*1674 ANTENNA__0524__S0
*1675 ANTENNA__0524__S1
*1676 ANTENNA__0525__S
*1677 ANTENNA__0526__A
*1678 ANTENNA__0527__S0
*1679 ANTENNA__0527__S1
*1680 ANTENNA__0528__S0
*1681 ANTENNA__0528__S1
*1682 ANTENNA__0529__S
*1683 ANTENNA__0530__A
*1684 ANTENNA__0531__S0
*1685 ANTENNA__0531__S1
*1686 ANTENNA__0532__S0
*1687 ANTENNA__0532__S1
*1688 ANTENNA__0533__S
*1689 ANTENNA__0534__A
*1690 ANTENNA__0535__S0
*1691 ANTENNA__0535__S1
*1692 ANTENNA__0536__S0
*1693 ANTENNA__0536__S1
*1694 ANTENNA__0537__S
*1695 ANTENNA__0538__A
*1696 ANTENNA__0539__S0
*1697 ANTENNA__0539__S1
*1698 ANTENNA__0540__S0
*1699 ANTENNA__0540__S1
*1700 ANTENNA__0541__S
*1701 ANTENNA__0542__A
*1702 ANTENNA__0543__S0
*1703 ANTENNA__0543__S1
*1704 ANTENNA__0544__S0
*1705 ANTENNA__0544__S1
*1706 ANTENNA__0545__S
*1707 ANTENNA__0546__A
*1708 ANTENNA__0547__S0
*1709 ANTENNA__0547__S1
*1710 ANTENNA__0548__S0
*1711 ANTENNA__0548__S1
*1712 ANTENNA__0549__S
*1713 ANTENNA__0550__A
*1714 ANTENNA__0551__S0
*1715 ANTENNA__0551__S1
*1716 ANTENNA__0552__S0
*1717 ANTENNA__0552__S1
*1718 ANTENNA__0553__S
*1719 ANTENNA__0554__A
*1720 ANTENNA__0558__S
*1721 ANTENNA__0559__S
*1722 ANTENNA__0560__S
*1723 ANTENNA__0561__S
*1724 ANTENNA__0562__S
*1725 ANTENNA__0563__S
*1726 ANTENNA__0564__S
*1727 ANTENNA__0565__S
*1728 ANTENNA__0566__S
*1729 ANTENNA__0567__S
*1730 ANTENNA__0568__S
*1731 ANTENNA__0569__S
*1732 ANTENNA__0570__S
*1733 ANTENNA__0571__S
*1734 ANTENNA__0572__S
*1735 ANTENNA__0573__S
*1736 ANTENNA__0574__S
*1737 ANTENNA__0575__S
*1738 ANTENNA__0576__S
*1739 ANTENNA__0579__S
*1740 ANTENNA__0580__S
*1741 ANTENNA__0581__S
*1742 ANTENNA__0582__S
*1743 ANTENNA__0583__S
*1744 ANTENNA__0584__S
*1745 ANTENNA__0585__S
*1746 ANTENNA__0586__S
*1747 ANTENNA__0587__S
*1748 ANTENNA__0588__S
*1749 ANTENNA__0589__S
*1750 ANTENNA__0590__S
*1751 ANTENNA__0591__S
*1752 ANTENNA__0592__S
*1753 ANTENNA__0593__S
*1754 ANTENNA__0594__S
*1755 ANTENNA__0595__S
*1756 ANTENNA__0596__S
*1757 ANTENNA__0597__S
*1758 ANTENNA__0598__S
*1759 ANTENNA__0599__S