*SPEF "ieee 1481-1999"
*DESIGN "wishbone_nn"
*DATE "11:11:11 Fri 11 11, 1111"
*VENDOR "OpenRCX"
*PROGRAM "Parallel Extraction"
*VERSION "1.0"
*DESIGN_FLOW "NAME_SCOPE LOCAL" "PIN_CAP NONE"
*DIVIDER /
*DELIMITER :
*BUS_DELIMITER []
*T_UNIT 1 NS
*C_UNIT 1 PF
*R_UNIT 1 OHM
*L_UNIT 1 HENRY

*NAME_MAP
*3 wb_clk_i
*4 wb_rst_i
*5 wbs_ack_o
*6 wbs_adr_i[0]
*7 wbs_adr_i[10]
*8 wbs_adr_i[11]
*9 wbs_adr_i[12]
*10 wbs_adr_i[13]
*11 wbs_adr_i[14]
*12 wbs_adr_i[15]
*13 wbs_adr_i[16]
*14 wbs_adr_i[17]
*15 wbs_adr_i[18]
*16 wbs_adr_i[19]
*17 wbs_adr_i[1]
*18 wbs_adr_i[20]
*19 wbs_adr_i[21]
*20 wbs_adr_i[22]
*21 wbs_adr_i[23]
*22 wbs_adr_i[24]
*23 wbs_adr_i[25]
*24 wbs_adr_i[26]
*25 wbs_adr_i[27]
*26 wbs_adr_i[28]
*27 wbs_adr_i[29]
*28 wbs_adr_i[2]
*29 wbs_adr_i[30]
*30 wbs_adr_i[31]
*31 wbs_adr_i[3]
*32 wbs_adr_i[4]
*33 wbs_adr_i[5]
*34 wbs_adr_i[6]
*35 wbs_adr_i[7]
*36 wbs_adr_i[8]
*37 wbs_adr_i[9]
*38 wbs_cyc_i
*39 wbs_dat_i[0]
*40 wbs_dat_i[10]
*41 wbs_dat_i[11]
*42 wbs_dat_i[12]
*43 wbs_dat_i[13]
*44 wbs_dat_i[14]
*45 wbs_dat_i[15]
*46 wbs_dat_i[16]
*47 wbs_dat_i[17]
*48 wbs_dat_i[18]
*49 wbs_dat_i[19]
*50 wbs_dat_i[1]
*51 wbs_dat_i[20]
*52 wbs_dat_i[21]
*53 wbs_dat_i[22]
*54 wbs_dat_i[23]
*55 wbs_dat_i[24]
*56 wbs_dat_i[25]
*57 wbs_dat_i[26]
*58 wbs_dat_i[27]
*59 wbs_dat_i[28]
*60 wbs_dat_i[29]
*61 wbs_dat_i[2]
*62 wbs_dat_i[30]
*63 wbs_dat_i[31]
*64 wbs_dat_i[3]
*65 wbs_dat_i[4]
*66 wbs_dat_i[5]
*67 wbs_dat_i[6]
*68 wbs_dat_i[7]
*69 wbs_dat_i[8]
*70 wbs_dat_i[9]
*71 wbs_dat_o[0]
*72 wbs_dat_o[10]
*73 wbs_dat_o[11]
*74 wbs_dat_o[12]
*75 wbs_dat_o[13]
*76 wbs_dat_o[14]
*77 wbs_dat_o[15]
*78 wbs_dat_o[16]
*79 wbs_dat_o[17]
*80 wbs_dat_o[18]
*81 wbs_dat_o[19]
*82 wbs_dat_o[1]
*83 wbs_dat_o[20]
*84 wbs_dat_o[21]
*85 wbs_dat_o[22]
*86 wbs_dat_o[23]
*87 wbs_dat_o[24]
*88 wbs_dat_o[25]
*89 wbs_dat_o[26]
*90 wbs_dat_o[27]
*91 wbs_dat_o[28]
*92 wbs_dat_o[29]
*93 wbs_dat_o[2]
*94 wbs_dat_o[30]
*95 wbs_dat_o[31]
*96 wbs_dat_o[3]
*97 wbs_dat_o[4]
*98 wbs_dat_o[5]
*99 wbs_dat_o[6]
*100 wbs_dat_o[7]
*101 wbs_dat_o[8]
*102 wbs_dat_o[9]
*103 wbs_sel_i[0]
*104 wbs_sel_i[1]
*105 wbs_sel_i[2]
*106 wbs_sel_i[3]
*107 wbs_stb_i
*108 wbs_we_i
*109 _0000_
*110 _0001_
*111 _0002_
*112 _0003_
*113 _0004_
*114 _0005_
*115 _0006_
*116 _0007_
*117 _0008_
*118 _0009_
*119 _0010_
*120 _0011_
*121 _0012_
*122 _0013_
*123 _0014_
*124 _0015_
*125 _0016_
*126 _0017_
*127 _0018_
*128 _0019_
*129 _0020_
*130 _0021_
*131 _0022_
*132 _0023_
*133 _0024_
*134 _0025_
*135 _0026_
*136 _0027_
*137 _0028_
*138 _0029_
*139 _0030_
*140 _0031_
*141 _0032_
*142 _0033_
*143 _0034_
*144 _0035_
*145 _0036_
*146 _0037_
*147 _0038_
*148 _0039_
*149 _0040_
*150 _0041_
*151 _0042_
*152 _0043_
*153 _0044_
*154 _0045_
*155 _0046_
*156 _0047_
*157 _0048_
*158 _0049_
*159 _0050_
*160 _0051_
*161 _0052_
*162 _0053_
*163 _0054_
*164 _0055_
*165 _0056_
*166 _0057_
*167 _0058_
*168 _0059_
*169 _0060_
*170 _0061_
*171 _0062_
*172 _0063_
*173 _0064_
*174 _0065_
*175 _0066_
*176 _0067_
*177 _0068_
*178 _0069_
*179 _0070_
*180 _0071_
*181 _0072_
*182 _0073_
*183 _0074_
*184 _0075_
*185 _0076_
*186 _0077_
*187 _0078_
*188 _0079_
*189 _0080_
*190 _0081_
*191 _0082_
*192 _0083_
*193 _0084_
*194 _0085_
*195 _0086_
*196 _0087_
*197 _0088_
*198 _0089_
*199 _0090_
*200 _0091_
*201 _0092_
*202 _0093_
*203 _0094_
*204 _0095_
*205 _0096_
*206 _0097_
*207 _0098_
*208 _0099_
*209 _0100_
*210 _0101_
*211 _0102_
*212 _0103_
*213 _0104_
*214 _0105_
*215 _0106_
*216 _0107_
*217 _0108_
*218 _0109_
*219 _0110_
*220 _0111_
*221 _0112_
*222 _0113_
*223 _0114_
*224 _0115_
*225 _0116_
*226 _0117_
*227 _0118_
*228 _0119_
*229 _0120_
*230 _0121_
*231 _0122_
*232 _0123_
*233 _0124_
*234 _0125_
*235 _0126_
*236 _0127_
*237 _0128_
*238 _0129_
*239 _0130_
*240 _0131_
*241 _0132_
*242 _0133_
*243 _0134_
*244 _0135_
*245 _0136_
*246 _0137_
*247 _0138_
*248 _0139_
*249 _0140_
*250 _0141_
*251 _0142_
*252 _0143_
*253 _0144_
*254 _0145_
*255 _0146_
*256 _0147_
*257 _0148_
*258 _0149_
*259 _0150_
*260 _0151_
*261 _0152_
*262 _0153_
*263 _0154_
*264 _0155_
*265 _0156_
*266 _0157_
*267 _0158_
*268 _0159_
*269 _0160_
*270 _0161_
*271 _0162_
*272 _0163_
*273 _0164_
*274 _0165_
*275 _0166_
*276 _0167_
*277 _0168_
*278 _0169_
*279 _0170_
*280 _0171_
*281 _0172_
*282 _0173_
*283 _0174_
*284 _0175_
*285 _0176_
*286 _0177_
*287 _0178_
*288 _0179_
*289 _0180_
*290 _0181_
*291 _0182_
*292 _0183_
*293 _0184_
*294 _0185_
*295 _0186_
*296 _0187_
*297 _0188_
*298 _0189_
*299 _0190_
*300 _0191_
*301 _0192_
*302 _0193_
*303 _0194_
*304 _0195_
*305 _0196_
*306 _0197_
*307 _0198_
*308 _0199_
*309 _0200_
*310 _0201_
*311 _0202_
*312 _0203_
*313 _0204_
*314 _0205_
*315 _0206_
*316 _0207_
*317 _0208_
*318 _0209_
*319 _0210_
*320 _0211_
*321 _0212_
*322 _0213_
*323 _0214_
*324 _0215_
*325 _0216_
*326 _0217_
*327 _0218_
*328 _0219_
*329 _0220_
*330 _0221_
*331 _0222_
*332 _0223_
*333 _0224_
*334 _0225_
*335 _0226_
*336 _0227_
*337 _0228_
*338 _0229_
*339 _0230_
*340 _0231_
*341 _0232_
*342 _0233_
*343 _0234_
*344 _0235_
*345 _0236_
*346 _0237_
*347 _0238_
*348 _0239_
*349 _0240_
*350 _0241_
*351 _0242_
*352 _0243_
*353 _0244_
*354 _0245_
*355 _0246_
*356 _0247_
*357 _0248_
*358 _0249_
*359 _0250_
*360 _0251_
*361 _0252_
*362 _0253_
*363 _0254_
*364 _0255_
*365 _0256_
*366 _0257_
*367 _0258_
*368 _0259_
*369 _0260_
*370 _0261_
*371 _0262_
*372 _0263_
*373 _0264_
*374 _0265_
*375 _0266_
*376 _0267_
*377 _0268_
*378 _0269_
*379 _0270_
*380 _0271_
*381 _0272_
*382 _0273_
*383 _0274_
*384 _0275_
*385 _0276_
*386 _0277_
*387 _0278_
*388 _0279_
*389 _0280_
*390 _0281_
*391 _0282_
*392 _0283_
*393 _0284_
*394 _0285_
*395 _0286_
*396 _0287_
*397 _0288_
*398 _0289_
*399 _0290_
*400 _0291_
*401 _0292_
*402 _0293_
*403 _0294_
*404 _0295_
*405 _0296_
*406 _0297_
*407 _0298_
*408 _0299_
*409 _0300_
*410 _0301_
*411 _0302_
*412 _0303_
*413 _0304_
*414 _0305_
*415 _0306_
*416 _0307_
*417 _0308_
*418 _0309_
*419 _0310_
*420 _0311_
*421 _0312_
*422 _0313_
*423 _0314_
*424 _0315_
*425 _0316_
*426 _0317_
*427 _0318_
*428 _0319_
*429 _0320_
*430 _0321_
*431 _0322_
*432 _0323_
*433 _0324_
*434 _0325_
*435 _0326_
*436 _0327_
*437 _0328_
*438 _0329_
*439 _0330_
*440 _0331_
*441 _0332_
*442 _0333_
*443 _0334_
*444 _0335_
*445 _0336_
*446 _0337_
*447 _0338_
*448 _0339_
*449 _0340_
*450 _0341_
*451 _0342_
*452 _0343_
*453 _0344_
*454 _0345_
*455 _0346_
*456 _0347_
*457 _0348_
*458 _0349_
*459 _0350_
*460 _0351_
*461 _0352_
*462 _0353_
*463 _0354_
*464 _0355_
*465 _0356_
*466 _0357_
*467 _0358_
*468 _0359_
*469 _0360_
*470 _0361_
*471 _0362_
*472 _0363_
*473 _0364_
*474 _0365_
*475 _0366_
*476 _0367_
*477 _0368_
*478 _0369_
*479 _0370_
*480 _0371_
*481 _0372_
*482 _0373_
*483 _0374_
*484 _0375_
*485 _0376_
*486 _0377_
*487 _0378_
*488 _0379_
*489 _0380_
*490 _0381_
*491 _0382_
*492 _0383_
*493 _0384_
*494 _0385_
*495 _0386_
*496 _0387_
*497 _0388_
*498 _0389_
*499 _0390_
*500 _0391_
*501 _0392_
*502 _0393_
*503 _0394_
*504 _0395_
*505 _0396_
*506 _0397_
*507 _0398_
*508 _0399_
*509 _0400_
*510 _0401_
*511 _0402_
*512 _0403_
*513 _0404_
*514 _0405_
*515 _0406_
*516 _0407_
*517 _0408_
*518 _0409_
*519 _0410_
*520 _0411_
*521 _0412_
*522 _0413_
*523 _0414_
*524 _0415_
*525 _0416_
*526 _0417_
*527 _0418_
*528 _0419_
*529 _0420_
*530 _0421_
*531 _0422_
*532 _0423_
*533 _0424_
*534 _0425_
*535 _0426_
*536 _0427_
*537 _0428_
*538 _0429_
*539 _0430_
*540 _0431_
*541 _0432_
*542 _0433_
*543 _0434_
*544 _0435_
*545 _0436_
*546 _0437_
*547 _0438_
*548 _0439_
*549 _0440_
*550 _0441_
*551 _0442_
*552 _0443_
*553 _0444_
*554 _0445_
*555 _0446_
*556 _0447_
*557 _0448_
*558 _0449_
*559 _0450_
*560 _0451_
*561 _0452_
*562 _0453_
*563 _0454_
*564 _0455_
*565 _0456_
*566 _0457_
*567 _0458_
*568 _0459_
*569 _0460_
*570 _0461_
*571 _0462_
*572 _0463_
*573 _0464_
*574 _0465_
*575 _0466_
*576 _0467_
*577 _0468_
*578 _0469_
*579 _0470_
*580 _0471_
*581 _0472_
*582 _0473_
*583 _0474_
*584 _0475_
*585 _0476_
*586 _0477_
*587 _0478_
*588 _0479_
*589 _0480_
*590 _0481_
*591 _0482_
*592 _0483_
*593 _0484_
*594 _0485_
*595 _0486_
*596 _0487_
*597 _0488_
*598 _0489_
*599 _0490_
*600 _0491_
*601 _0492_
*602 _0493_
*603 _0494_
*604 _0495_
*605 _0496_
*606 _0497_
*607 _0498_
*608 _0499_
*609 _0500_
*610 _0501_
*611 _0502_
*612 _0503_
*613 _0504_
*614 _0505_
*615 _0506_
*616 _0507_
*617 _0508_
*618 _0509_
*619 _0510_
*620 _0511_
*621 _0512_
*622 _0513_
*623 _0514_
*624 _0515_
*625 _0516_
*626 clknet_0_wb_clk_i
*627 clknet_1_0__leaf_wb_clk_i
*628 clknet_1_1__leaf_wb_clk_i
*629 clknet_leaf_0_wb_clk_i
*630 clknet_leaf_10_wb_clk_i
*631 clknet_leaf_11_wb_clk_i
*632 clknet_leaf_12_wb_clk_i
*633 clknet_leaf_13_wb_clk_i
*634 clknet_leaf_14_wb_clk_i
*635 clknet_leaf_15_wb_clk_i
*636 clknet_leaf_16_wb_clk_i
*637 clknet_leaf_17_wb_clk_i
*638 clknet_leaf_18_wb_clk_i
*639 clknet_leaf_19_wb_clk_i
*640 clknet_leaf_1_wb_clk_i
*641 clknet_leaf_2_wb_clk_i
*642 clknet_leaf_3_wb_clk_i
*643 clknet_leaf_4_wb_clk_i
*644 clknet_leaf_5_wb_clk_i
*645 clknet_leaf_6_wb_clk_i
*646 clknet_leaf_7_wb_clk_i
*647 clknet_leaf_8_wb_clk_i
*648 clknet_leaf_9_wb_clk_i
*649 fifo_in\.FIFO\[0\]\[0\]
*650 fifo_in\.FIFO\[0\]\[10\]
*651 fifo_in\.FIFO\[0\]\[11\]
*652 fifo_in\.FIFO\[0\]\[12\]
*653 fifo_in\.FIFO\[0\]\[13\]
*654 fifo_in\.FIFO\[0\]\[14\]
*655 fifo_in\.FIFO\[0\]\[15\]
*656 fifo_in\.FIFO\[0\]\[16\]
*657 fifo_in\.FIFO\[0\]\[17\]
*658 fifo_in\.FIFO\[0\]\[18\]
*659 fifo_in\.FIFO\[0\]\[19\]
*660 fifo_in\.FIFO\[0\]\[1\]
*661 fifo_in\.FIFO\[0\]\[20\]
*662 fifo_in\.FIFO\[0\]\[21\]
*663 fifo_in\.FIFO\[0\]\[22\]
*664 fifo_in\.FIFO\[0\]\[23\]
*665 fifo_in\.FIFO\[0\]\[24\]
*666 fifo_in\.FIFO\[0\]\[25\]
*667 fifo_in\.FIFO\[0\]\[26\]
*668 fifo_in\.FIFO\[0\]\[27\]
*669 fifo_in\.FIFO\[0\]\[28\]
*670 fifo_in\.FIFO\[0\]\[29\]
*671 fifo_in\.FIFO\[0\]\[2\]
*672 fifo_in\.FIFO\[0\]\[30\]
*673 fifo_in\.FIFO\[0\]\[31\]
*674 fifo_in\.FIFO\[0\]\[3\]
*675 fifo_in\.FIFO\[0\]\[4\]
*676 fifo_in\.FIFO\[0\]\[5\]
*677 fifo_in\.FIFO\[0\]\[6\]
*678 fifo_in\.FIFO\[0\]\[7\]
*679 fifo_in\.FIFO\[0\]\[8\]
*680 fifo_in\.FIFO\[0\]\[9\]
*681 fifo_in\.FIFO\[1\]\[0\]
*682 fifo_in\.FIFO\[1\]\[10\]
*683 fifo_in\.FIFO\[1\]\[11\]
*684 fifo_in\.FIFO\[1\]\[12\]
*685 fifo_in\.FIFO\[1\]\[13\]
*686 fifo_in\.FIFO\[1\]\[14\]
*687 fifo_in\.FIFO\[1\]\[15\]
*688 fifo_in\.FIFO\[1\]\[16\]
*689 fifo_in\.FIFO\[1\]\[17\]
*690 fifo_in\.FIFO\[1\]\[18\]
*691 fifo_in\.FIFO\[1\]\[19\]
*692 fifo_in\.FIFO\[1\]\[1\]
*693 fifo_in\.FIFO\[1\]\[20\]
*694 fifo_in\.FIFO\[1\]\[21\]
*695 fifo_in\.FIFO\[1\]\[22\]
*696 fifo_in\.FIFO\[1\]\[23\]
*697 fifo_in\.FIFO\[1\]\[24\]
*698 fifo_in\.FIFO\[1\]\[25\]
*699 fifo_in\.FIFO\[1\]\[26\]
*700 fifo_in\.FIFO\[1\]\[27\]
*701 fifo_in\.FIFO\[1\]\[28\]
*702 fifo_in\.FIFO\[1\]\[29\]
*703 fifo_in\.FIFO\[1\]\[2\]
*704 fifo_in\.FIFO\[1\]\[30\]
*705 fifo_in\.FIFO\[1\]\[31\]
*706 fifo_in\.FIFO\[1\]\[3\]
*707 fifo_in\.FIFO\[1\]\[4\]
*708 fifo_in\.FIFO\[1\]\[5\]
*709 fifo_in\.FIFO\[1\]\[6\]
*710 fifo_in\.FIFO\[1\]\[7\]
*711 fifo_in\.FIFO\[1\]\[8\]
*712 fifo_in\.FIFO\[1\]\[9\]
*713 fifo_in\.FIFO\[2\]\[0\]
*714 fifo_in\.FIFO\[2\]\[10\]
*715 fifo_in\.FIFO\[2\]\[11\]
*716 fifo_in\.FIFO\[2\]\[12\]
*717 fifo_in\.FIFO\[2\]\[13\]
*718 fifo_in\.FIFO\[2\]\[14\]
*719 fifo_in\.FIFO\[2\]\[15\]
*720 fifo_in\.FIFO\[2\]\[16\]
*721 fifo_in\.FIFO\[2\]\[17\]
*722 fifo_in\.FIFO\[2\]\[18\]
*723 fifo_in\.FIFO\[2\]\[19\]
*724 fifo_in\.FIFO\[2\]\[1\]
*725 fifo_in\.FIFO\[2\]\[20\]
*726 fifo_in\.FIFO\[2\]\[21\]
*727 fifo_in\.FIFO\[2\]\[22\]
*728 fifo_in\.FIFO\[2\]\[23\]
*729 fifo_in\.FIFO\[2\]\[24\]
*730 fifo_in\.FIFO\[2\]\[25\]
*731 fifo_in\.FIFO\[2\]\[26\]
*732 fifo_in\.FIFO\[2\]\[27\]
*733 fifo_in\.FIFO\[2\]\[28\]
*734 fifo_in\.FIFO\[2\]\[29\]
*735 fifo_in\.FIFO\[2\]\[2\]
*736 fifo_in\.FIFO\[2\]\[30\]
*737 fifo_in\.FIFO\[2\]\[31\]
*738 fifo_in\.FIFO\[2\]\[3\]
*739 fifo_in\.FIFO\[2\]\[4\]
*740 fifo_in\.FIFO\[2\]\[5\]
*741 fifo_in\.FIFO\[2\]\[6\]
*742 fifo_in\.FIFO\[2\]\[7\]
*743 fifo_in\.FIFO\[2\]\[8\]
*744 fifo_in\.FIFO\[2\]\[9\]
*745 fifo_in\.FIFO\[3\]\[0\]
*746 fifo_in\.FIFO\[3\]\[10\]
*747 fifo_in\.FIFO\[3\]\[11\]
*748 fifo_in\.FIFO\[3\]\[12\]
*749 fifo_in\.FIFO\[3\]\[13\]
*750 fifo_in\.FIFO\[3\]\[14\]
*751 fifo_in\.FIFO\[3\]\[15\]
*752 fifo_in\.FIFO\[3\]\[16\]
*753 fifo_in\.FIFO\[3\]\[17\]
*754 fifo_in\.FIFO\[3\]\[18\]
*755 fifo_in\.FIFO\[3\]\[19\]
*756 fifo_in\.FIFO\[3\]\[1\]
*757 fifo_in\.FIFO\[3\]\[20\]
*758 fifo_in\.FIFO\[3\]\[21\]
*759 fifo_in\.FIFO\[3\]\[22\]
*760 fifo_in\.FIFO\[3\]\[23\]
*761 fifo_in\.FIFO\[3\]\[24\]
*762 fifo_in\.FIFO\[3\]\[25\]
*763 fifo_in\.FIFO\[3\]\[26\]
*764 fifo_in\.FIFO\[3\]\[27\]
*765 fifo_in\.FIFO\[3\]\[28\]
*766 fifo_in\.FIFO\[3\]\[29\]
*767 fifo_in\.FIFO\[3\]\[2\]
*768 fifo_in\.FIFO\[3\]\[30\]
*769 fifo_in\.FIFO\[3\]\[31\]
*770 fifo_in\.FIFO\[3\]\[3\]
*771 fifo_in\.FIFO\[3\]\[4\]
*772 fifo_in\.FIFO\[3\]\[5\]
*773 fifo_in\.FIFO\[3\]\[6\]
*774 fifo_in\.FIFO\[3\]\[7\]
*775 fifo_in\.FIFO\[3\]\[8\]
*776 fifo_in\.FIFO\[3\]\[9\]
*777 fifo_in\.FIFO\[4\]\[0\]
*778 fifo_in\.FIFO\[4\]\[10\]
*779 fifo_in\.FIFO\[4\]\[11\]
*780 fifo_in\.FIFO\[4\]\[12\]
*781 fifo_in\.FIFO\[4\]\[13\]
*782 fifo_in\.FIFO\[4\]\[14\]
*783 fifo_in\.FIFO\[4\]\[15\]
*784 fifo_in\.FIFO\[4\]\[16\]
*785 fifo_in\.FIFO\[4\]\[17\]
*786 fifo_in\.FIFO\[4\]\[18\]
*787 fifo_in\.FIFO\[4\]\[19\]
*788 fifo_in\.FIFO\[4\]\[1\]
*789 fifo_in\.FIFO\[4\]\[20\]
*790 fifo_in\.FIFO\[4\]\[21\]
*791 fifo_in\.FIFO\[4\]\[22\]
*792 fifo_in\.FIFO\[4\]\[23\]
*793 fifo_in\.FIFO\[4\]\[24\]
*794 fifo_in\.FIFO\[4\]\[25\]
*795 fifo_in\.FIFO\[4\]\[26\]
*796 fifo_in\.FIFO\[4\]\[27\]
*797 fifo_in\.FIFO\[4\]\[28\]
*798 fifo_in\.FIFO\[4\]\[29\]
*799 fifo_in\.FIFO\[4\]\[2\]
*800 fifo_in\.FIFO\[4\]\[30\]
*801 fifo_in\.FIFO\[4\]\[31\]
*802 fifo_in\.FIFO\[4\]\[3\]
*803 fifo_in\.FIFO\[4\]\[4\]
*804 fifo_in\.FIFO\[4\]\[5\]
*805 fifo_in\.FIFO\[4\]\[6\]
*806 fifo_in\.FIFO\[4\]\[7\]
*807 fifo_in\.FIFO\[4\]\[8\]
*808 fifo_in\.FIFO\[4\]\[9\]
*809 fifo_in\.FIFO\[5\]\[0\]
*810 fifo_in\.FIFO\[5\]\[10\]
*811 fifo_in\.FIFO\[5\]\[11\]
*812 fifo_in\.FIFO\[5\]\[12\]
*813 fifo_in\.FIFO\[5\]\[13\]
*814 fifo_in\.FIFO\[5\]\[14\]
*815 fifo_in\.FIFO\[5\]\[15\]
*816 fifo_in\.FIFO\[5\]\[16\]
*817 fifo_in\.FIFO\[5\]\[17\]
*818 fifo_in\.FIFO\[5\]\[18\]
*819 fifo_in\.FIFO\[5\]\[19\]
*820 fifo_in\.FIFO\[5\]\[1\]
*821 fifo_in\.FIFO\[5\]\[20\]
*822 fifo_in\.FIFO\[5\]\[21\]
*823 fifo_in\.FIFO\[5\]\[22\]
*824 fifo_in\.FIFO\[5\]\[23\]
*825 fifo_in\.FIFO\[5\]\[24\]
*826 fifo_in\.FIFO\[5\]\[25\]
*827 fifo_in\.FIFO\[5\]\[26\]
*828 fifo_in\.FIFO\[5\]\[27\]
*829 fifo_in\.FIFO\[5\]\[28\]
*830 fifo_in\.FIFO\[5\]\[29\]
*831 fifo_in\.FIFO\[5\]\[2\]
*832 fifo_in\.FIFO\[5\]\[30\]
*833 fifo_in\.FIFO\[5\]\[31\]
*834 fifo_in\.FIFO\[5\]\[3\]
*835 fifo_in\.FIFO\[5\]\[4\]
*836 fifo_in\.FIFO\[5\]\[5\]
*837 fifo_in\.FIFO\[5\]\[6\]
*838 fifo_in\.FIFO\[5\]\[7\]
*839 fifo_in\.FIFO\[5\]\[8\]
*840 fifo_in\.FIFO\[5\]\[9\]
*841 fifo_in\.FIFO\[6\]\[0\]
*842 fifo_in\.FIFO\[6\]\[10\]
*843 fifo_in\.FIFO\[6\]\[11\]
*844 fifo_in\.FIFO\[6\]\[12\]
*845 fifo_in\.FIFO\[6\]\[13\]
*846 fifo_in\.FIFO\[6\]\[14\]
*847 fifo_in\.FIFO\[6\]\[15\]
*848 fifo_in\.FIFO\[6\]\[16\]
*849 fifo_in\.FIFO\[6\]\[17\]
*850 fifo_in\.FIFO\[6\]\[18\]
*851 fifo_in\.FIFO\[6\]\[19\]
*852 fifo_in\.FIFO\[6\]\[1\]
*853 fifo_in\.FIFO\[6\]\[20\]
*854 fifo_in\.FIFO\[6\]\[21\]
*855 fifo_in\.FIFO\[6\]\[22\]
*856 fifo_in\.FIFO\[6\]\[23\]
*857 fifo_in\.FIFO\[6\]\[24\]
*858 fifo_in\.FIFO\[6\]\[25\]
*859 fifo_in\.FIFO\[6\]\[26\]
*860 fifo_in\.FIFO\[6\]\[27\]
*861 fifo_in\.FIFO\[6\]\[28\]
*862 fifo_in\.FIFO\[6\]\[29\]
*863 fifo_in\.FIFO\[6\]\[2\]
*864 fifo_in\.FIFO\[6\]\[30\]
*865 fifo_in\.FIFO\[6\]\[31\]
*866 fifo_in\.FIFO\[6\]\[3\]
*867 fifo_in\.FIFO\[6\]\[4\]
*868 fifo_in\.FIFO\[6\]\[5\]
*869 fifo_in\.FIFO\[6\]\[6\]
*870 fifo_in\.FIFO\[6\]\[7\]
*871 fifo_in\.FIFO\[6\]\[8\]
*872 fifo_in\.FIFO\[6\]\[9\]
*873 fifo_in\.FIFO\[7\]\[0\]
*874 fifo_in\.FIFO\[7\]\[10\]
*875 fifo_in\.FIFO\[7\]\[11\]
*876 fifo_in\.FIFO\[7\]\[12\]
*877 fifo_in\.FIFO\[7\]\[13\]
*878 fifo_in\.FIFO\[7\]\[14\]
*879 fifo_in\.FIFO\[7\]\[15\]
*880 fifo_in\.FIFO\[7\]\[16\]
*881 fifo_in\.FIFO\[7\]\[17\]
*882 fifo_in\.FIFO\[7\]\[18\]
*883 fifo_in\.FIFO\[7\]\[19\]
*884 fifo_in\.FIFO\[7\]\[1\]
*885 fifo_in\.FIFO\[7\]\[20\]
*886 fifo_in\.FIFO\[7\]\[21\]
*887 fifo_in\.FIFO\[7\]\[22\]
*888 fifo_in\.FIFO\[7\]\[23\]
*889 fifo_in\.FIFO\[7\]\[24\]
*890 fifo_in\.FIFO\[7\]\[25\]
*891 fifo_in\.FIFO\[7\]\[26\]
*892 fifo_in\.FIFO\[7\]\[27\]
*893 fifo_in\.FIFO\[7\]\[28\]
*894 fifo_in\.FIFO\[7\]\[29\]
*895 fifo_in\.FIFO\[7\]\[2\]
*896 fifo_in\.FIFO\[7\]\[30\]
*897 fifo_in\.FIFO\[7\]\[31\]
*898 fifo_in\.FIFO\[7\]\[3\]
*899 fifo_in\.FIFO\[7\]\[4\]
*900 fifo_in\.FIFO\[7\]\[5\]
*901 fifo_in\.FIFO\[7\]\[6\]
*902 fifo_in\.FIFO\[7\]\[7\]
*903 fifo_in\.FIFO\[7\]\[8\]
*904 fifo_in\.FIFO\[7\]\[9\]
*905 fifo_in\.count\[0\]
*906 fifo_in\.count\[1\]
*907 fifo_in\.count\[2\]
*908 fifo_in\.data_o\[0\]
*909 fifo_in\.data_o\[10\]
*910 fifo_in\.data_o\[11\]
*911 fifo_in\.data_o\[12\]
*912 fifo_in\.data_o\[13\]
*913 fifo_in\.data_o\[14\]
*914 fifo_in\.data_o\[15\]
*915 fifo_in\.data_o\[16\]
*916 fifo_in\.data_o\[17\]
*917 fifo_in\.data_o\[18\]
*918 fifo_in\.data_o\[19\]
*919 fifo_in\.data_o\[1\]
*920 fifo_in\.data_o\[20\]
*921 fifo_in\.data_o\[21\]
*922 fifo_in\.data_o\[22\]
*923 fifo_in\.data_o\[23\]
*924 fifo_in\.data_o\[24\]
*925 fifo_in\.data_o\[25\]
*926 fifo_in\.data_o\[26\]
*927 fifo_in\.data_o\[27\]
*928 fifo_in\.data_o\[28\]
*929 fifo_in\.data_o\[29\]
*930 fifo_in\.data_o\[2\]
*931 fifo_in\.data_o\[30\]
*932 fifo_in\.data_o\[31\]
*933 fifo_in\.data_o\[3\]
*934 fifo_in\.data_o\[4\]
*935 fifo_in\.data_o\[5\]
*936 fifo_in\.data_o\[6\]
*937 fifo_in\.data_o\[7\]
*938 fifo_in\.data_o\[8\]
*939 fifo_in\.data_o\[9\]
*940 fifo_in\.read_addr\[0\]
*941 fifo_in\.read_addr\[1\]
*942 fifo_in\.read_addr\[2\]
*943 fifo_in\.write_addr\[0\]
*944 fifo_in\.write_addr\[1\]
*945 fifo_in\.write_addr\[2\]
*946 net1
*947 net10
*948 net100
*949 net101
*950 net102
*951 net103
*952 net104
*953 net105
*954 net106
*955 net107
*956 net108
*957 net109
*958 net11
*959 net110
*960 net111
*961 net112
*962 net113
*963 net114
*964 net115
*965 net116
*966 net117
*967 net118
*968 net119
*969 net12
*970 net120
*971 net121
*972 net122
*973 net123
*974 net124
*975 net125
*976 net126
*977 net127
*978 net128
*979 net129
*980 net13
*981 net130
*982 net131
*983 net132
*984 net133
*985 net134
*986 net135
*987 net136
*988 net137
*989 net138
*990 net139
*991 net14
*992 net140
*993 net141
*994 net142
*995 net143
*996 net144
*997 net145
*998 net146
*999 net147
*1000 net148
*1001 net149
*1002 net15
*1003 net150
*1004 net151
*1005 net152
*1006 net153
*1007 net154
*1008 net155
*1009 net156
*1010 net157
*1011 net158
*1012 net159
*1013 net16
*1014 net160
*1015 net161
*1016 net162
*1017 net163
*1018 net164
*1019 net165
*1020 net166
*1021 net167
*1022 net168
*1023 net169
*1024 net17
*1025 net170
*1026 net171
*1027 net172
*1028 net173
*1029 net174
*1030 net175
*1031 net176
*1032 net177
*1033 net178
*1034 net179
*1035 net18
*1036 net180
*1037 net181
*1038 net182
*1039 net183
*1040 net184
*1041 net185
*1042 net186
*1043 net187
*1044 net188
*1045 net189
*1046 net19
*1047 net190
*1048 net191
*1049 net192
*1050 net193
*1051 net194
*1052 net195
*1053 net196
*1054 net197
*1055 net198
*1056 net199
*1057 net2
*1058 net20
*1059 net200
*1060 net201
*1061 net202
*1062 net203
*1063 net204
*1064 net205
*1065 net206
*1066 net207
*1067 net208
*1068 net209
*1069 net21
*1070 net210
*1071 net211
*1072 net212
*1073 net213
*1074 net214
*1075 net215
*1076 net216
*1077 net217
*1078 net218
*1079 net219
*1080 net22
*1081 net220
*1082 net221
*1083 net222
*1084 net223
*1085 net224
*1086 net225
*1087 net226
*1088 net227
*1089 net228
*1090 net229
*1091 net23
*1092 net230
*1093 net231
*1094 net232
*1095 net233
*1096 net234
*1097 net235
*1098 net236
*1099 net237
*1100 net238
*1101 net239
*1102 net24
*1103 net240
*1104 net241
*1105 net242
*1106 net243
*1107 net244
*1108 net245
*1109 net246
*1110 net247
*1111 net248
*1112 net249
*1113 net25
*1114 net250
*1115 net251
*1116 net252
*1117 net253
*1118 net254
*1119 net255
*1120 net256
*1121 net257
*1122 net258
*1123 net259
*1124 net26
*1125 net260
*1126 net261
*1127 net262
*1128 net263
*1129 net264
*1130 net265
*1131 net266
*1132 net267
*1133 net268
*1134 net269
*1135 net27
*1136 net270
*1137 net271
*1138 net272
*1139 net273
*1140 net274
*1141 net275
*1142 net276
*1143 net277
*1144 net278
*1145 net279
*1146 net28
*1147 net280
*1148 net281
*1149 net282
*1150 net283
*1151 net284
*1152 net285
*1153 net286
*1154 net287
*1155 net288
*1156 net289
*1157 net29
*1158 net290
*1159 net291
*1160 net292
*1161 net293
*1162 net294
*1163 net295
*1164 net296
*1165 net297
*1166 net298
*1167 net299
*1168 net3
*1169 net30
*1170 net300
*1171 net301
*1172 net302
*1173 net303
*1174 net304
*1175 net305
*1176 net306
*1177 net307
*1178 net308
*1179 net309
*1180 net31
*1181 net310
*1182 net311
*1183 net312
*1184 net313
*1185 net314
*1186 net315
*1187 net316
*1188 net317
*1189 net318
*1190 net319
*1191 net32
*1192 net320
*1193 net321
*1194 net322
*1195 net323
*1196 net324
*1197 net325
*1198 net326
*1199 net327
*1200 net328
*1201 net329
*1202 net33
*1203 net330
*1204 net331
*1205 net332
*1206 net333
*1207 net334
*1208 net335
*1209 net336
*1210 net337
*1211 net338
*1212 net339
*1213 net34
*1214 net340
*1215 net341
*1216 net342
*1217 net343
*1218 net344
*1219 net345
*1220 net346
*1221 net347
*1222 net348
*1223 net349
*1224 net35
*1225 net350
*1226 net351
*1227 net352
*1228 net353
*1229 net354
*1230 net355
*1231 net356
*1232 net357
*1233 net358
*1234 net359
*1235 net36
*1236 net360
*1237 net361
*1238 net362
*1239 net363
*1240 net364
*1241 net365
*1242 net366
*1243 net367
*1244 net368
*1245 net369
*1246 net37
*1247 net370
*1248 net371
*1249 net372
*1250 net373
*1251 net374
*1252 net375
*1253 net376
*1254 net377
*1255 net378
*1256 net379
*1257 net38
*1258 net380
*1259 net381
*1260 net382
*1261 net383
*1262 net384
*1263 net385
*1264 net386
*1265 net387
*1266 net388
*1267 net389
*1268 net39
*1269 net390
*1270 net391
*1271 net392
*1272 net393
*1273 net394
*1274 net395
*1275 net396
*1276 net397
*1277 net398
*1278 net399
*1279 net4
*1280 net40
*1281 net400
*1282 net401
*1283 net402
*1284 net403
*1285 net404
*1286 net405
*1287 net406
*1288 net407
*1289 net408
*1290 net409
*1291 net41
*1292 net410
*1293 net411
*1294 net412
*1295 net413
*1296 net414
*1297 net415
*1298 net416
*1299 net417
*1300 net418
*1301 net419
*1302 net42
*1303 net420
*1304 net421
*1305 net422
*1306 net423
*1307 net424
*1308 net425
*1309 net426
*1310 net427
*1311 net428
*1312 net429
*1313 net43
*1314 net430
*1315 net431
*1316 net432
*1317 net433
*1318 net434
*1319 net435
*1320 net436
*1321 net437
*1322 net438
*1323 net439
*1324 net44
*1325 net440
*1326 net441
*1327 net442
*1328 net443
*1329 net444
*1330 net445
*1331 net446
*1332 net447
*1333 net448
*1334 net449
*1335 net45
*1336 net450
*1337 net451
*1338 net452
*1339 net453
*1340 net454
*1341 net455
*1342 net456
*1343 net457
*1344 net458
*1345 net459
*1346 net46
*1347 net460
*1348 net461
*1349 net462
*1350 net463
*1351 net464
*1352 net465
*1353 net466
*1354 net467
*1355 net468
*1356 net469
*1357 net47
*1358 net470
*1359 net471
*1360 net472
*1361 net473
*1362 net474
*1363 net475
*1364 net476
*1365 net477
*1366 net478
*1367 net479
*1368 net48
*1369 net480
*1370 net481
*1371 net482
*1372 net483
*1373 net484
*1374 net485
*1375 net486
*1376 net487
*1377 net488
*1378 net489
*1379 net49
*1380 net490
*1381 net491
*1382 net492
*1383 net493
*1384 net494
*1385 net495
*1386 net496
*1387 net497
*1388 net498
*1389 net499
*1390 net5
*1391 net50
*1392 net500
*1393 net501
*1394 net502
*1395 net503
*1396 net504
*1397 net505
*1398 net506
*1399 net507
*1400 net508
*1401 net509
*1402 net51
*1403 net510
*1404 net511
*1405 net512
*1406 net513
*1407 net514
*1408 net515
*1409 net516
*1410 net517
*1411 net518
*1412 net519
*1413 net52
*1414 net520
*1415 net521
*1416 net522
*1417 net523
*1418 net524
*1419 net525
*1420 net526
*1421 net527
*1422 net528
*1423 net529
*1424 net53
*1425 net530
*1426 net531
*1427 net532
*1428 net533
*1429 net534
*1430 net535
*1431 net536
*1432 net537
*1433 net538
*1434 net539
*1435 net54
*1436 net540
*1437 net541
*1438 net542
*1439 net543
*1440 net544
*1441 net545
*1442 net546
*1443 net547
*1444 net548
*1445 net549
*1446 net55
*1447 net550
*1448 net551
*1449 net552
*1450 net553
*1451 net554
*1452 net555
*1453 net556
*1454 net557
*1455 net558
*1456 net559
*1457 net56
*1458 net560
*1459 net561
*1460 net562
*1461 net563
*1462 net564
*1463 net565
*1464 net566
*1465 net567
*1466 net568
*1467 net569
*1468 net57
*1469 net570
*1470 net571
*1471 net572
*1472 net573
*1473 net574
*1474 net575
*1475 net576
*1476 net577
*1477 net578
*1478 net579
*1479 net58
*1480 net580
*1481 net581
*1482 net582
*1483 net583
*1484 net584
*1485 net585
*1486 net586
*1487 net587
*1488 net588
*1489 net589
*1490 net59
*1491 net590
*1492 net591
*1493 net592
*1494 net593
*1495 net594
*1496 net595
*1497 net596
*1498 net597
*1499 net598
*1500 net599
*1501 net6
*1502 net60
*1503 net600
*1504 net601
*1505 net602
*1506 net603
*1507 net604
*1508 net605
*1509 net606
*1510 net607
*1511 net608
*1512 net609
*1513 net61
*1514 net610
*1515 net611
*1516 net612
*1517 net613
*1518 net614
*1519 net615
*1520 net616
*1521 net617
*1522 net618
*1523 net619
*1524 net62
*1525 net620
*1526 net621
*1527 net622
*1528 net623
*1529 net624
*1530 net625
*1531 net626
*1532 net627
*1533 net628
*1534 net629
*1535 net63
*1536 net630
*1537 net631
*1538 net632
*1539 net633
*1540 net634
*1541 net635
*1542 net636
*1543 net637
*1544 net638
*1545 net639
*1546 net64
*1547 net640
*1548 net641
*1549 net642
*1550 net643
*1551 net644
*1552 net645
*1553 net646
*1554 net647
*1555 net648
*1556 net649
*1557 net65
*1558 net650
*1559 net651
*1560 net652
*1561 net653
*1562 net654
*1563 net655
*1564 net656
*1565 net657
*1566 net658
*1567 net659
*1568 net66
*1569 net660
*1570 net661
*1571 net662
*1572 net663
*1573 net664
*1574 net665
*1575 net666
*1576 net667
*1577 net668
*1578 net669
*1579 net67
*1580 net670
*1581 net671
*1582 net672
*1583 net673
*1584 net674
*1585 net675
*1586 net676
*1587 net677
*1588 net678
*1589 net679
*1590 net68
*1591 net680
*1592 net681
*1593 net682
*1594 net683
*1595 net684
*1596 net685
*1597 net686
*1598 net687
*1599 net688
*1600 net689
*1601 net69
*1602 net690
*1603 net691
*1604 net692
*1605 net693
*1606 net694
*1607 net695
*1608 net696
*1609 net697
*1610 net698
*1611 net699
*1612 net7
*1613 net70
*1614 net700
*1615 net701
*1616 net702
*1617 net703
*1618 net704
*1619 net705
*1620 net706
*1621 net707
*1622 net708
*1623 net709
*1624 net71
*1625 net710
*1626 net711
*1627 net712
*1628 net713
*1629 net714
*1630 net715
*1631 net716
*1632 net717
*1633 net718
*1634 net719
*1635 net72
*1636 net720
*1637 net721
*1638 net722
*1639 net723
*1640 net724
*1641 net725
*1642 net726
*1643 net727
*1644 net728
*1645 net729
*1646 net73
*1647 net730
*1648 net731
*1649 net732
*1650 net733
*1651 net734
*1652 net735
*1653 net736
*1654 net737
*1655 net738
*1656 net739
*1657 net74
*1658 net740
*1659 net741
*1660 net742
*1661 net743
*1662 net744
*1663 net745
*1664 net746
*1665 net747
*1666 net748
*1667 net749
*1668 net75
*1669 net750
*1670 net751
*1671 net752
*1672 net753
*1673 net754
*1674 net755
*1675 net756
*1676 net757
*1677 net758
*1678 net759
*1679 net76
*1680 net760
*1681 net761
*1682 net762
*1683 net763
*1684 net764
*1685 net765
*1686 net766
*1687 net767
*1688 net768
*1689 net769
*1690 net77
*1691 net770
*1692 net771
*1693 net772
*1694 net773
*1695 net774
*1696 net775
*1697 net776
*1698 net777
*1699 net778
*1700 net779
*1701 net78
*1702 net780
*1703 net781
*1704 net782
*1705 net783
*1706 net784
*1707 net785
*1708 net786
*1709 net787
*1710 net788
*1711 net789
*1712 net79
*1713 net790
*1714 net791
*1715 net792
*1716 net793
*1717 net794
*1718 net795
*1719 net796
*1720 net797
*1721 net798
*1722 net799
*1723 net8
*1724 net80
*1725 net800
*1726 net801
*1727 net802
*1728 net803
*1729 net804
*1730 net805
*1731 net806
*1732 net807
*1733 net808
*1734 net809
*1735 net81
*1736 net810
*1737 net811
*1738 net812
*1739 net813
*1740 net814
*1741 net815
*1742 net816
*1743 net817
*1744 net818
*1745 net819
*1746 net82
*1747 net820
*1748 net821
*1749 net822
*1750 net823
*1751 net824
*1752 net825
*1753 net826
*1754 net827
*1755 net828
*1756 net829
*1757 net83
*1758 net830
*1759 net831
*1760 net832
*1761 net833
*1762 net834
*1763 net835
*1764 net836
*1765 net837
*1766 net838
*1767 net839
*1768 net84
*1769 net840
*1770 net841
*1771 net842
*1772 net843
*1773 net844
*1774 net845
*1775 net846
*1776 net847
*1777 net848
*1778 net849
*1779 net85
*1780 net850
*1781 net851
*1782 net852
*1783 net853
*1784 net854
*1785 net855
*1786 net856
*1787 net857
*1788 net858
*1789 net859
*1790 net86
*1791 net860
*1792 net861
*1793 net862
*1794 net863
*1795 net864
*1796 net87
*1797 net88
*1798 net89
*1799 net9
*1800 net90
*1801 net91
*1802 net92
*1803 net93
*1804 net94
*1805 net95
*1806 net96
*1807 net97
*1808 net98
*1809 net99
*1810 ANTENNA__0518__A
*1811 ANTENNA__0521__S
*1812 ANTENNA__0522__S
*1813 ANTENNA__0523__S
*1814 ANTENNA__0524__S
*1815 ANTENNA__0525__S
*1816 ANTENNA__0526__S
*1817 ANTENNA__0527__S
*1818 ANTENNA__0528__S
*1819 ANTENNA__0541__D
*1820 ANTENNA__0543__A1
*1821 ANTENNA__0544__A
*1822 ANTENNA__0545__A
*1823 ANTENNA__0550__S
*1824 ANTENNA__0551__S
*1825 ANTENNA__0552__S
*1826 ANTENNA__0553__S
*1827 ANTENNA__0554__S
*1828 ANTENNA__0555__S
*1829 ANTENNA__0556__S
*1830 ANTENNA__0557__S
*1831 ANTENNA__0558__S
*1832 ANTENNA__0559__S
*1833 ANTENNA__0560__S
*1834 ANTENNA__0561__S
*1835 ANTENNA__0562__S
*1836 ANTENNA__0563__S
*1837 ANTENNA__0564__S
*1838 ANTENNA__0565__S
*1839 ANTENNA__0566__S
*1840 ANTENNA__0567__S
*1841 ANTENNA__0568__S
*1842 ANTENNA__0569__S
*1843 ANTENNA__0570__S
*1844 ANTENNA__0571__S
*1845 ANTENNA__0572__S
*1846 ANTENNA__0573__S
*1847 ANTENNA__0574__S
*1848 ANTENNA__0575__S
*1849 ANTENNA__0576__S
*1850 ANTENNA__0577__S
*1851 ANTENNA__0578__S
*1852 ANTENNA__0579__S
*1853 ANTENNA__0580__S
*1854 ANTENNA__0581__S
*1855 ANTENNA__0583__S
*1856 ANTENNA__0584__S
*1857 ANTENNA__0585__S
*1858 ANTENNA__0586__S
*1859 ANTENNA__0587__S
*1860 ANTENNA__0588__S
*1861 ANTENNA__0589__S