*SPEF "ieee 1481-1999"
*DESIGN "wishbone_nn"
*DATE "11:11:11 Fri 11 11, 1111"
*VENDOR "OpenRCX"
*PROGRAM "Parallel Extraction"
*VERSION "1.0"
*DESIGN_FLOW "NAME_SCOPE LOCAL" "PIN_CAP NONE"
*DIVIDER /
*DELIMITER :
*BUS_DELIMITER []
*T_UNIT 1 NS
*C_UNIT 1 PF
*R_UNIT 1 OHM
*L_UNIT 1 HENRY

*NAME_MAP
*3 wb_clk_i
*4 wb_rst_i
*5 wbs_ack_o
*6 wbs_cyc_i
*7 wbs_dat_i[0]
*8 wbs_dat_i[10]
*9 wbs_dat_i[11]
*10 wbs_dat_i[12]
*11 wbs_dat_i[13]
*12 wbs_dat_i[14]
*13 wbs_dat_i[15]
*14 wbs_dat_i[16]
*15 wbs_dat_i[17]
*16 wbs_dat_i[18]
*17 wbs_dat_i[19]
*18 wbs_dat_i[1]
*19 wbs_dat_i[20]
*20 wbs_dat_i[21]
*21 wbs_dat_i[22]
*22 wbs_dat_i[23]
*23 wbs_dat_i[24]
*24 wbs_dat_i[25]
*25 wbs_dat_i[26]
*26 wbs_dat_i[27]
*27 wbs_dat_i[28]
*28 wbs_dat_i[29]
*29 wbs_dat_i[2]
*30 wbs_dat_i[30]
*31 wbs_dat_i[31]
*32 wbs_dat_i[3]
*33 wbs_dat_i[4]
*34 wbs_dat_i[5]
*35 wbs_dat_i[6]
*36 wbs_dat_i[7]
*37 wbs_dat_i[8]
*38 wbs_dat_i[9]
*39 wbs_dat_o[0]
*40 wbs_dat_o[10]
*41 wbs_dat_o[11]
*42 wbs_dat_o[12]
*43 wbs_dat_o[13]
*44 wbs_dat_o[14]
*45 wbs_dat_o[15]
*46 wbs_dat_o[16]
*47 wbs_dat_o[17]
*48 wbs_dat_o[18]
*49 wbs_dat_o[19]
*50 wbs_dat_o[1]
*51 wbs_dat_o[20]
*52 wbs_dat_o[21]
*53 wbs_dat_o[22]
*54 wbs_dat_o[23]
*55 wbs_dat_o[24]
*56 wbs_dat_o[25]
*57 wbs_dat_o[26]
*58 wbs_dat_o[27]
*59 wbs_dat_o[28]
*60 wbs_dat_o[29]
*61 wbs_dat_o[2]
*62 wbs_dat_o[30]
*63 wbs_dat_o[31]
*64 wbs_dat_o[3]
*65 wbs_dat_o[4]
*66 wbs_dat_o[5]
*67 wbs_dat_o[6]
*68 wbs_dat_o[7]
*69 wbs_dat_o[8]
*70 wbs_dat_o[9]
*71 wbs_stb_i
*72 wbs_we_i
*73 _0000_
*74 _0001_
*75 _0002_
*76 _0003_
*77 _0004_
*78 _0005_
*79 _0006_
*80 _0007_
*81 _0008_
*82 _0009_
*83 _0010_
*84 _0011_
*85 _0012_
*86 _0013_
*87 _0014_
*88 _0015_
*89 _0016_
*90 _0017_
*91 _0018_
*92 _0019_
*93 _0020_
*94 _0021_
*95 _0022_
*96 _0023_
*97 _0024_
*98 _0025_
*99 _0026_
*100 _0027_
*101 _0028_
*102 _0029_
*103 _0030_
*104 _0031_
*105 _0032_
*106 _0033_
*107 _0034_
*108 _0035_
*109 _0036_
*110 _0037_
*111 _0038_
*112 _0039_
*113 _0040_
*114 _0041_
*115 _0042_
*116 _0043_
*117 _0044_
*118 _0045_
*119 _0046_
*120 _0047_
*121 _0048_
*122 _0049_
*123 _0050_
*124 _0051_
*125 _0052_
*126 _0053_
*127 _0054_
*128 _0055_
*129 _0056_
*130 _0057_
*131 _0058_
*132 _0059_
*133 _0060_
*134 _0061_
*135 _0062_
*136 _0063_
*137 _0064_
*138 _0065_
*139 _0066_
*140 _0067_
*141 _0068_
*142 _0069_
*143 _0070_
*144 _0071_
*145 _0072_
*146 _0073_
*147 _0074_
*148 _0075_
*149 _0076_
*150 _0077_
*151 _0078_
*152 _0079_
*153 _0080_
*154 _0081_
*155 _0082_
*156 _0083_
*157 _0084_
*158 _0085_
*159 _0086_
*160 _0087_
*161 _0088_
*162 _0089_
*163 _0090_
*164 _0091_
*165 _0092_
*166 _0093_
*167 _0094_
*168 _0095_
*169 _0096_
*170 _0097_
*171 _0098_
*172 _0099_
*173 _0100_
*174 _0101_
*175 _0102_
*176 _0103_
*177 _0104_
*178 _0105_
*179 _0106_
*180 _0107_
*181 _0108_
*182 _0109_
*183 _0110_
*184 _0111_
*185 _0112_
*186 _0113_
*187 _0114_
*188 _0115_
*189 _0116_
*190 _0117_
*191 _0118_
*192 _0119_
*193 _0120_
*194 _0121_
*195 _0122_
*196 _0123_
*197 _0124_
*198 _0125_
*199 _0126_
*200 _0127_
*201 _0128_
*202 _0129_
*203 _0130_
*204 _0131_
*205 _0132_
*206 _0133_
*207 _0134_
*208 _0135_
*209 _0136_
*210 _0137_
*211 _0138_
*212 _0139_
*213 _0140_
*214 _0141_
*215 _0142_
*216 _0143_
*217 _0144_
*218 _0145_
*219 _0146_
*220 _0147_
*221 _0148_
*222 _0149_
*223 _0150_
*224 _0151_
*225 _0152_
*226 _0153_
*227 _0154_
*228 _0155_
*229 _0156_
*230 _0157_
*231 _0158_
*232 _0159_
*233 _0160_
*234 _0161_
*235 _0162_
*236 _0163_
*237 _0164_
*238 _0165_
*239 _0166_
*240 _0167_
*241 _0168_
*242 _0169_
*243 _0170_
*244 _0171_
*245 _0172_
*246 _0173_
*247 _0174_
*248 _0175_
*249 _0176_
*250 _0177_
*251 _0178_
*252 _0179_
*253 _0180_
*254 _0181_
*255 _0182_
*256 _0183_
*257 _0184_
*258 _0185_
*259 _0186_
*260 _0187_
*261 _0188_
*262 _0189_
*263 _0190_
*264 _0191_
*265 _0192_
*266 _0193_
*267 _0194_
*268 _0195_
*269 _0196_
*270 _0197_
*271 _0198_
*272 _0199_
*273 _0200_
*274 _0201_
*275 _0202_
*276 _0203_
*277 _0204_
*278 _0205_
*279 _0206_
*280 _0207_
*281 _0208_
*282 _0209_
*283 _0210_
*284 _0211_
*285 _0212_
*286 _0213_
*287 _0214_
*288 _0215_
*289 _0216_
*290 _0217_
*291 _0218_
*292 _0219_
*293 _0220_
*294 _0221_
*295 _0222_
*296 _0223_
*297 _0224_
*298 _0225_
*299 _0226_
*300 _0227_
*301 _0228_
*302 _0229_
*303 _0230_
*304 _0231_
*305 _0232_
*306 _0233_
*307 _0234_
*308 _0235_
*309 _0236_
*310 _0237_
*311 _0238_
*312 _0239_
*313 _0240_
*314 _0241_
*315 _0242_
*316 _0243_
*317 _0244_
*318 _0245_
*319 _0246_
*320 _0247_
*321 _0248_
*322 _0249_
*323 _0250_
*324 _0251_
*325 _0252_
*326 _0253_
*327 _0254_
*328 _0255_
*329 _0256_
*330 _0257_
*331 _0258_
*332 _0259_
*333 _0260_
*334 _0261_
*335 _0262_
*336 _0263_
*337 _0264_
*338 _0265_
*339 _0266_
*340 _0267_
*341 _0268_
*342 _0269_
*343 _0270_
*344 _0271_
*345 _0272_
*346 _0273_
*347 _0274_
*348 _0275_
*349 _0276_
*350 _0277_
*351 _0278_
*352 _0279_
*353 _0280_
*354 _0281_
*355 _0282_
*356 _0283_
*357 _0284_
*358 _0285_
*359 _0286_
*360 _0287_
*361 _0288_
*362 _0289_
*363 _0290_
*364 _0291_
*365 _0292_
*366 _0293_
*367 _0294_
*368 _0295_
*369 _0296_
*370 _0297_
*371 _0298_
*372 _0299_
*373 _0300_
*374 _0301_
*375 _0302_
*376 _0303_
*377 _0304_
*378 _0305_
*379 _0306_
*380 _0307_
*381 _0308_
*382 _0309_
*383 _0310_
*384 _0311_
*385 _0312_
*386 _0313_
*387 _0314_
*388 _0315_
*389 _0316_
*390 _0317_
*391 _0318_
*392 _0319_
*393 _0320_
*394 _0321_
*395 _0322_
*396 _0323_
*397 _0324_
*398 _0325_
*399 _0326_
*400 _0327_
*401 _0328_
*402 _0329_
*403 _0330_
*404 _0331_
*405 _0332_
*406 _0333_
*407 _0334_
*408 _0335_
*409 _0336_
*410 _0337_
*411 _0338_
*412 _0339_
*413 _0340_
*414 _0341_
*415 _0342_
*416 _0343_
*417 _0344_
*418 _0345_
*419 _0346_
*420 _0347_
*421 _0348_
*422 _0349_
*423 _0350_
*424 _0351_
*425 _0352_
*426 _0353_
*427 _0354_
*428 _0355_
*429 _0356_
*430 _0357_
*431 _0358_
*432 _0359_
*433 _0360_
*434 _0361_
*435 _0362_
*436 _0363_
*437 _0364_
*438 _0365_
*439 _0366_
*440 _0367_
*441 _0368_
*442 _0369_
*443 _0370_
*444 _0371_
*445 _0372_
*446 _0373_
*447 _0374_
*448 _0375_
*449 _0376_
*450 _0377_
*451 _0378_
*452 _0379_
*453 _0380_
*454 _0381_
*455 _0382_
*456 _0383_
*457 _0384_
*458 _0385_
*459 _0386_
*460 _0387_
*461 _0388_
*462 _0389_
*463 _0390_
*464 _0391_
*465 _0392_
*466 _0393_
*467 _0394_
*468 _0395_
*469 _0396_
*470 _0397_
*471 _0398_
*472 _0399_
*473 _0400_
*474 _0401_
*475 _0402_
*476 _0403_
*477 _0404_
*478 _0405_
*479 _0406_
*480 _0407_
*481 _0408_
*482 _0409_
*483 _0410_
*484 _0411_
*485 _0412_
*486 _0413_
*487 _0414_
*488 _0415_
*489 _0416_
*490 _0417_
*491 _0418_
*492 _0419_
*493 _0420_
*494 _0421_
*495 _0422_
*496 _0423_
*497 _0424_
*498 _0425_
*499 _0426_
*500 _0427_
*501 _0428_
*502 _0429_
*503 _0430_
*504 _0431_
*505 _0432_
*506 _0433_
*507 _0434_
*508 _0435_
*509 _0436_
*510 clknet_0_wb_clk_i
*511 clknet_1_0__leaf_wb_clk_i
*512 clknet_1_1__leaf_wb_clk_i
*513 clknet_leaf_0_wb_clk_i
*514 clknet_leaf_10_wb_clk_i
*515 clknet_leaf_11_wb_clk_i
*516 clknet_leaf_12_wb_clk_i
*517 clknet_leaf_13_wb_clk_i
*518 clknet_leaf_1_wb_clk_i
*519 clknet_leaf_2_wb_clk_i
*520 clknet_leaf_3_wb_clk_i
*521 clknet_leaf_4_wb_clk_i
*522 clknet_leaf_5_wb_clk_i
*523 clknet_leaf_6_wb_clk_i
*524 clknet_leaf_7_wb_clk_i
*525 clknet_leaf_8_wb_clk_i
*526 clknet_leaf_9_wb_clk_i
*527 fifo_in\.FIFO\[0\]\[0\]
*528 fifo_in\.FIFO\[0\]\[10\]
*529 fifo_in\.FIFO\[0\]\[11\]
*530 fifo_in\.FIFO\[0\]\[12\]
*531 fifo_in\.FIFO\[0\]\[13\]
*532 fifo_in\.FIFO\[0\]\[14\]
*533 fifo_in\.FIFO\[0\]\[15\]
*534 fifo_in\.FIFO\[0\]\[16\]
*535 fifo_in\.FIFO\[0\]\[17\]
*536 fifo_in\.FIFO\[0\]\[18\]
*537 fifo_in\.FIFO\[0\]\[19\]
*538 fifo_in\.FIFO\[0\]\[1\]
*539 fifo_in\.FIFO\[0\]\[20\]
*540 fifo_in\.FIFO\[0\]\[21\]
*541 fifo_in\.FIFO\[0\]\[22\]
*542 fifo_in\.FIFO\[0\]\[23\]
*543 fifo_in\.FIFO\[0\]\[24\]
*544 fifo_in\.FIFO\[0\]\[25\]
*545 fifo_in\.FIFO\[0\]\[26\]
*546 fifo_in\.FIFO\[0\]\[27\]
*547 fifo_in\.FIFO\[0\]\[28\]
*548 fifo_in\.FIFO\[0\]\[29\]
*549 fifo_in\.FIFO\[0\]\[2\]
*550 fifo_in\.FIFO\[0\]\[30\]
*551 fifo_in\.FIFO\[0\]\[31\]
*552 fifo_in\.FIFO\[0\]\[3\]
*553 fifo_in\.FIFO\[0\]\[4\]
*554 fifo_in\.FIFO\[0\]\[5\]
*555 fifo_in\.FIFO\[0\]\[6\]
*556 fifo_in\.FIFO\[0\]\[7\]
*557 fifo_in\.FIFO\[0\]\[8\]
*558 fifo_in\.FIFO\[0\]\[9\]
*559 fifo_in\.FIFO\[1\]\[0\]
*560 fifo_in\.FIFO\[1\]\[10\]
*561 fifo_in\.FIFO\[1\]\[11\]
*562 fifo_in\.FIFO\[1\]\[12\]
*563 fifo_in\.FIFO\[1\]\[13\]
*564 fifo_in\.FIFO\[1\]\[14\]
*565 fifo_in\.FIFO\[1\]\[15\]
*566 fifo_in\.FIFO\[1\]\[16\]
*567 fifo_in\.FIFO\[1\]\[17\]
*568 fifo_in\.FIFO\[1\]\[18\]
*569 fifo_in\.FIFO\[1\]\[19\]
*570 fifo_in\.FIFO\[1\]\[1\]
*571 fifo_in\.FIFO\[1\]\[20\]
*572 fifo_in\.FIFO\[1\]\[21\]
*573 fifo_in\.FIFO\[1\]\[22\]
*574 fifo_in\.FIFO\[1\]\[23\]
*575 fifo_in\.FIFO\[1\]\[24\]
*576 fifo_in\.FIFO\[1\]\[25\]
*577 fifo_in\.FIFO\[1\]\[26\]
*578 fifo_in\.FIFO\[1\]\[27\]
*579 fifo_in\.FIFO\[1\]\[28\]
*580 fifo_in\.FIFO\[1\]\[29\]
*581 fifo_in\.FIFO\[1\]\[2\]
*582 fifo_in\.FIFO\[1\]\[30\]
*583 fifo_in\.FIFO\[1\]\[31\]
*584 fifo_in\.FIFO\[1\]\[3\]
*585 fifo_in\.FIFO\[1\]\[4\]
*586 fifo_in\.FIFO\[1\]\[5\]
*587 fifo_in\.FIFO\[1\]\[6\]
*588 fifo_in\.FIFO\[1\]\[7\]
*589 fifo_in\.FIFO\[1\]\[8\]
*590 fifo_in\.FIFO\[1\]\[9\]
*591 fifo_in\.FIFO\[2\]\[0\]
*592 fifo_in\.FIFO\[2\]\[10\]
*593 fifo_in\.FIFO\[2\]\[11\]
*594 fifo_in\.FIFO\[2\]\[12\]
*595 fifo_in\.FIFO\[2\]\[13\]
*596 fifo_in\.FIFO\[2\]\[14\]
*597 fifo_in\.FIFO\[2\]\[15\]
*598 fifo_in\.FIFO\[2\]\[16\]
*599 fifo_in\.FIFO\[2\]\[17\]
*600 fifo_in\.FIFO\[2\]\[18\]
*601 fifo_in\.FIFO\[2\]\[19\]
*602 fifo_in\.FIFO\[2\]\[1\]
*603 fifo_in\.FIFO\[2\]\[20\]
*604 fifo_in\.FIFO\[2\]\[21\]
*605 fifo_in\.FIFO\[2\]\[22\]
*606 fifo_in\.FIFO\[2\]\[23\]
*607 fifo_in\.FIFO\[2\]\[24\]
*608 fifo_in\.FIFO\[2\]\[25\]
*609 fifo_in\.FIFO\[2\]\[26\]
*610 fifo_in\.FIFO\[2\]\[27\]
*611 fifo_in\.FIFO\[2\]\[28\]
*612 fifo_in\.FIFO\[2\]\[29\]
*613 fifo_in\.FIFO\[2\]\[2\]
*614 fifo_in\.FIFO\[2\]\[30\]
*615 fifo_in\.FIFO\[2\]\[31\]
*616 fifo_in\.FIFO\[2\]\[3\]
*617 fifo_in\.FIFO\[2\]\[4\]
*618 fifo_in\.FIFO\[2\]\[5\]
*619 fifo_in\.FIFO\[2\]\[6\]
*620 fifo_in\.FIFO\[2\]\[7\]
*621 fifo_in\.FIFO\[2\]\[8\]
*622 fifo_in\.FIFO\[2\]\[9\]
*623 fifo_in\.FIFO\[3\]\[0\]
*624 fifo_in\.FIFO\[3\]\[10\]
*625 fifo_in\.FIFO\[3\]\[11\]
*626 fifo_in\.FIFO\[3\]\[12\]
*627 fifo_in\.FIFO\[3\]\[13\]
*628 fifo_in\.FIFO\[3\]\[14\]
*629 fifo_in\.FIFO\[3\]\[15\]
*630 fifo_in\.FIFO\[3\]\[16\]
*631 fifo_in\.FIFO\[3\]\[17\]
*632 fifo_in\.FIFO\[3\]\[18\]
*633 fifo_in\.FIFO\[3\]\[19\]
*634 fifo_in\.FIFO\[3\]\[1\]
*635 fifo_in\.FIFO\[3\]\[20\]
*636 fifo_in\.FIFO\[3\]\[21\]
*637 fifo_in\.FIFO\[3\]\[22\]
*638 fifo_in\.FIFO\[3\]\[23\]
*639 fifo_in\.FIFO\[3\]\[24\]
*640 fifo_in\.FIFO\[3\]\[25\]
*641 fifo_in\.FIFO\[3\]\[26\]
*642 fifo_in\.FIFO\[3\]\[27\]
*643 fifo_in\.FIFO\[3\]\[28\]
*644 fifo_in\.FIFO\[3\]\[29\]
*645 fifo_in\.FIFO\[3\]\[2\]
*646 fifo_in\.FIFO\[3\]\[30\]
*647 fifo_in\.FIFO\[3\]\[31\]
*648 fifo_in\.FIFO\[3\]\[3\]
*649 fifo_in\.FIFO\[3\]\[4\]
*650 fifo_in\.FIFO\[3\]\[5\]
*651 fifo_in\.FIFO\[3\]\[6\]
*652 fifo_in\.FIFO\[3\]\[7\]
*653 fifo_in\.FIFO\[3\]\[8\]
*654 fifo_in\.FIFO\[3\]\[9\]
*655 fifo_in\.FIFO\[4\]\[0\]
*656 fifo_in\.FIFO\[4\]\[10\]
*657 fifo_in\.FIFO\[4\]\[11\]
*658 fifo_in\.FIFO\[4\]\[12\]
*659 fifo_in\.FIFO\[4\]\[13\]
*660 fifo_in\.FIFO\[4\]\[14\]
*661 fifo_in\.FIFO\[4\]\[15\]
*662 fifo_in\.FIFO\[4\]\[16\]
*663 fifo_in\.FIFO\[4\]\[17\]
*664 fifo_in\.FIFO\[4\]\[18\]
*665 fifo_in\.FIFO\[4\]\[19\]
*666 fifo_in\.FIFO\[4\]\[1\]
*667 fifo_in\.FIFO\[4\]\[20\]
*668 fifo_in\.FIFO\[4\]\[21\]
*669 fifo_in\.FIFO\[4\]\[22\]
*670 fifo_in\.FIFO\[4\]\[23\]
*671 fifo_in\.FIFO\[4\]\[24\]
*672 fifo_in\.FIFO\[4\]\[25\]
*673 fifo_in\.FIFO\[4\]\[26\]
*674 fifo_in\.FIFO\[4\]\[27\]
*675 fifo_in\.FIFO\[4\]\[28\]
*676 fifo_in\.FIFO\[4\]\[29\]
*677 fifo_in\.FIFO\[4\]\[2\]
*678 fifo_in\.FIFO\[4\]\[30\]
*679 fifo_in\.FIFO\[4\]\[31\]
*680 fifo_in\.FIFO\[4\]\[3\]
*681 fifo_in\.FIFO\[4\]\[4\]
*682 fifo_in\.FIFO\[4\]\[5\]
*683 fifo_in\.FIFO\[4\]\[6\]
*684 fifo_in\.FIFO\[4\]\[7\]
*685 fifo_in\.FIFO\[4\]\[8\]
*686 fifo_in\.FIFO\[4\]\[9\]
*687 fifo_in\.FIFO\[5\]\[0\]
*688 fifo_in\.FIFO\[5\]\[10\]
*689 fifo_in\.FIFO\[5\]\[11\]
*690 fifo_in\.FIFO\[5\]\[12\]
*691 fifo_in\.FIFO\[5\]\[13\]
*692 fifo_in\.FIFO\[5\]\[14\]
*693 fifo_in\.FIFO\[5\]\[15\]
*694 fifo_in\.FIFO\[5\]\[16\]
*695 fifo_in\.FIFO\[5\]\[17\]
*696 fifo_in\.FIFO\[5\]\[18\]
*697 fifo_in\.FIFO\[5\]\[19\]
*698 fifo_in\.FIFO\[5\]\[1\]
*699 fifo_in\.FIFO\[5\]\[20\]
*700 fifo_in\.FIFO\[5\]\[21\]
*701 fifo_in\.FIFO\[5\]\[22\]
*702 fifo_in\.FIFO\[5\]\[23\]
*703 fifo_in\.FIFO\[5\]\[24\]
*704 fifo_in\.FIFO\[5\]\[25\]
*705 fifo_in\.FIFO\[5\]\[26\]
*706 fifo_in\.FIFO\[5\]\[27\]
*707 fifo_in\.FIFO\[5\]\[28\]
*708 fifo_in\.FIFO\[5\]\[29\]
*709 fifo_in\.FIFO\[5\]\[2\]
*710 fifo_in\.FIFO\[5\]\[30\]
*711 fifo_in\.FIFO\[5\]\[31\]
*712 fifo_in\.FIFO\[5\]\[3\]
*713 fifo_in\.FIFO\[5\]\[4\]
*714 fifo_in\.FIFO\[5\]\[5\]
*715 fifo_in\.FIFO\[5\]\[6\]
*716 fifo_in\.FIFO\[5\]\[7\]
*717 fifo_in\.FIFO\[5\]\[8\]
*718 fifo_in\.FIFO\[5\]\[9\]
*719 fifo_in\.FIFO\[6\]\[0\]
*720 fifo_in\.FIFO\[6\]\[10\]
*721 fifo_in\.FIFO\[6\]\[11\]
*722 fifo_in\.FIFO\[6\]\[12\]
*723 fifo_in\.FIFO\[6\]\[13\]
*724 fifo_in\.FIFO\[6\]\[14\]
*725 fifo_in\.FIFO\[6\]\[15\]
*726 fifo_in\.FIFO\[6\]\[16\]
*727 fifo_in\.FIFO\[6\]\[17\]
*728 fifo_in\.FIFO\[6\]\[18\]
*729 fifo_in\.FIFO\[6\]\[19\]
*730 fifo_in\.FIFO\[6\]\[1\]
*731 fifo_in\.FIFO\[6\]\[20\]
*732 fifo_in\.FIFO\[6\]\[21\]
*733 fifo_in\.FIFO\[6\]\[22\]
*734 fifo_in\.FIFO\[6\]\[23\]
*735 fifo_in\.FIFO\[6\]\[24\]
*736 fifo_in\.FIFO\[6\]\[25\]
*737 fifo_in\.FIFO\[6\]\[26\]
*738 fifo_in\.FIFO\[6\]\[27\]
*739 fifo_in\.FIFO\[6\]\[28\]
*740 fifo_in\.FIFO\[6\]\[29\]
*741 fifo_in\.FIFO\[6\]\[2\]
*742 fifo_in\.FIFO\[6\]\[30\]
*743 fifo_in\.FIFO\[6\]\[31\]
*744 fifo_in\.FIFO\[6\]\[3\]
*745 fifo_in\.FIFO\[6\]\[4\]
*746 fifo_in\.FIFO\[6\]\[5\]
*747 fifo_in\.FIFO\[6\]\[6\]
*748 fifo_in\.FIFO\[6\]\[7\]
*749 fifo_in\.FIFO\[6\]\[8\]
*750 fifo_in\.FIFO\[6\]\[9\]
*751 fifo_in\.FIFO\[7\]\[0\]
*752 fifo_in\.FIFO\[7\]\[10\]
*753 fifo_in\.FIFO\[7\]\[11\]
*754 fifo_in\.FIFO\[7\]\[12\]
*755 fifo_in\.FIFO\[7\]\[13\]
*756 fifo_in\.FIFO\[7\]\[14\]
*757 fifo_in\.FIFO\[7\]\[15\]
*758 fifo_in\.FIFO\[7\]\[16\]
*759 fifo_in\.FIFO\[7\]\[17\]
*760 fifo_in\.FIFO\[7\]\[18\]
*761 fifo_in\.FIFO\[7\]\[19\]
*762 fifo_in\.FIFO\[7\]\[1\]
*763 fifo_in\.FIFO\[7\]\[20\]
*764 fifo_in\.FIFO\[7\]\[21\]
*765 fifo_in\.FIFO\[7\]\[22\]
*766 fifo_in\.FIFO\[7\]\[23\]
*767 fifo_in\.FIFO\[7\]\[24\]
*768 fifo_in\.FIFO\[7\]\[25\]
*769 fifo_in\.FIFO\[7\]\[26\]
*770 fifo_in\.FIFO\[7\]\[27\]
*771 fifo_in\.FIFO\[7\]\[28\]
*772 fifo_in\.FIFO\[7\]\[29\]
*773 fifo_in\.FIFO\[7\]\[2\]
*774 fifo_in\.FIFO\[7\]\[30\]
*775 fifo_in\.FIFO\[7\]\[31\]
*776 fifo_in\.FIFO\[7\]\[3\]
*777 fifo_in\.FIFO\[7\]\[4\]
*778 fifo_in\.FIFO\[7\]\[5\]
*779 fifo_in\.FIFO\[7\]\[6\]
*780 fifo_in\.FIFO\[7\]\[7\]
*781 fifo_in\.FIFO\[7\]\[8\]
*782 fifo_in\.FIFO\[7\]\[9\]
*783 fifo_in\.count\[0\]
*784 fifo_in\.count\[1\]
*785 fifo_in\.count\[2\]
*786 fifo_in\.read_addr\[0\]
*787 fifo_in\.read_addr\[1\]
*788 fifo_in\.read_addr\[2\]
*789 fifo_in\.write_addr\[0\]
*790 fifo_in\.write_addr\[1\]
*791 fifo_in\.write_addr\[2\]
*792 net1
*793 net10
*794 net100
*795 net101
*796 net102
*797 net103
*798 net104
*799 net105
*800 net106
*801 net107
*802 net108
*803 net109
*804 net11
*805 net110
*806 net111
*807 net112
*808 net113
*809 net114
*810 net115
*811 net116
*812 net117
*813 net118
*814 net119
*815 net12
*816 net120
*817 net121
*818 net122
*819 net123
*820 net124
*821 net125
*822 net126
*823 net127
*824 net128
*825 net129
*826 net13
*827 net130
*828 net131
*829 net132
*830 net133
*831 net134
*832 net135
*833 net136
*834 net137
*835 net138
*836 net139
*837 net14
*838 net140
*839 net141
*840 net142
*841 net143
*842 net144
*843 net145
*844 net146
*845 net147
*846 net148
*847 net149
*848 net15
*849 net150
*850 net151
*851 net152
*852 net153
*853 net154
*854 net155
*855 net156
*856 net157
*857 net158
*858 net159
*859 net16
*860 net160
*861 net161
*862 net162
*863 net163
*864 net164
*865 net165
*866 net166
*867 net167
*868 net168
*869 net169
*870 net17
*871 net170
*872 net171
*873 net172
*874 net173
*875 net174
*876 net175
*877 net176
*878 net177
*879 net178
*880 net179
*881 net18
*882 net180
*883 net181
*884 net182
*885 net183
*886 net184
*887 net185
*888 net186
*889 net187
*890 net188
*891 net189
*892 net19
*893 net190
*894 net191
*895 net192
*896 net193
*897 net194
*898 net195
*899 net196
*900 net197
*901 net198
*902 net199
*903 net2
*904 net20
*905 net200
*906 net201
*907 net202
*908 net203
*909 net204
*910 net205
*911 net206
*912 net207
*913 net208
*914 net209
*915 net21
*916 net210
*917 net211
*918 net212
*919 net213
*920 net214
*921 net215
*922 net216
*923 net217
*924 net218
*925 net219
*926 net22
*927 net220
*928 net221
*929 net222
*930 net223
*931 net224
*932 net225
*933 net226
*934 net227
*935 net228
*936 net229
*937 net23
*938 net230
*939 net231
*940 net232
*941 net233
*942 net234
*943 net235
*944 net236
*945 net237
*946 net238
*947 net239
*948 net24
*949 net240
*950 net241
*951 net242
*952 net243
*953 net244
*954 net245
*955 net246
*956 net247
*957 net248
*958 net249
*959 net25
*960 net250
*961 net251
*962 net252
*963 net253
*964 net254
*965 net255
*966 net256
*967 net257
*968 net258
*969 net259
*970 net26
*971 net260
*972 net261
*973 net262
*974 net263
*975 net264
*976 net265
*977 net266
*978 net267
*979 net268
*980 net269
*981 net27
*982 net270
*983 net271
*984 net272
*985 net273
*986 net274
*987 net275
*988 net276
*989 net277
*990 net278
*991 net279
*992 net28
*993 net280
*994 net281
*995 net282
*996 net283
*997 net284
*998 net285
*999 net286
*1000 net287
*1001 net288
*1002 net289
*1003 net29
*1004 net290
*1005 net291
*1006 net292
*1007 net293
*1008 net294
*1009 net295
*1010 net296
*1011 net297
*1012 net298
*1013 net299
*1014 net3
*1015 net30
*1016 net300
*1017 net301
*1018 net302
*1019 net303
*1020 net304
*1021 net305
*1022 net306
*1023 net307
*1024 net308
*1025 net309
*1026 net31
*1027 net310
*1028 net311
*1029 net312
*1030 net313
*1031 net314
*1032 net315
*1033 net316
*1034 net317
*1035 net318
*1036 net319
*1037 net32
*1038 net320
*1039 net321
*1040 net322
*1041 net323
*1042 net324
*1043 net325
*1044 net326
*1045 net327
*1046 net328
*1047 net329
*1048 net33
*1049 net330
*1050 net331
*1051 net332
*1052 net333
*1053 net334
*1054 net335
*1055 net336
*1056 net337
*1057 net338
*1058 net339
*1059 net34
*1060 net340
*1061 net341
*1062 net342
*1063 net343
*1064 net344
*1065 net345
*1066 net346
*1067 net347
*1068 net348
*1069 net349
*1070 net35
*1071 net350
*1072 net351
*1073 net352
*1074 net353
*1075 net354
*1076 net355
*1077 net356
*1078 net357
*1079 net358
*1080 net359
*1081 net36
*1082 net360
*1083 net361
*1084 net362
*1085 net363
*1086 net364
*1087 net365
*1088 net366
*1089 net367
*1090 net368
*1091 net369
*1092 net37
*1093 net370
*1094 net371
*1095 net372
*1096 net373
*1097 net374
*1098 net375
*1099 net376
*1100 net377
*1101 net378
*1102 net379
*1103 net38
*1104 net380
*1105 net381
*1106 net382
*1107 net383
*1108 net384
*1109 net385
*1110 net386
*1111 net387
*1112 net388
*1113 net389
*1114 net39
*1115 net390
*1116 net391
*1117 net392
*1118 net393
*1119 net394
*1120 net395
*1121 net396
*1122 net397
*1123 net398
*1124 net399
*1125 net4
*1126 net40
*1127 net400
*1128 net401
*1129 net402
*1130 net403
*1131 net404
*1132 net405
*1133 net406
*1134 net407
*1135 net408
*1136 net409
*1137 net41
*1138 net410
*1139 net411
*1140 net412
*1141 net413
*1142 net414
*1143 net415
*1144 net416
*1145 net417
*1146 net418
*1147 net419
*1148 net42
*1149 net420
*1150 net421
*1151 net422
*1152 net423
*1153 net424
*1154 net425
*1155 net426
*1156 net427
*1157 net428
*1158 net429
*1159 net43
*1160 net430
*1161 net431
*1162 net432
*1163 net433
*1164 net434
*1165 net435
*1166 net436
*1167 net437
*1168 net438
*1169 net439
*1170 net44
*1171 net440
*1172 net441
*1173 net442
*1174 net443
*1175 net444
*1176 net445
*1177 net446
*1178 net447
*1179 net448
*1180 net449
*1181 net45
*1182 net450
*1183 net451
*1184 net452
*1185 net453
*1186 net454
*1187 net455
*1188 net456
*1189 net457
*1190 net458
*1191 net459
*1192 net46
*1193 net460
*1194 net461
*1195 net462
*1196 net463
*1197 net464
*1198 net465
*1199 net466
*1200 net467
*1201 net468
*1202 net469
*1203 net47
*1204 net470
*1205 net471
*1206 net472
*1207 net473
*1208 net474
*1209 net475
*1210 net476
*1211 net477
*1212 net478
*1213 net479
*1214 net48
*1215 net480
*1216 net481
*1217 net482
*1218 net483
*1219 net484
*1220 net485
*1221 net486
*1222 net487
*1223 net488
*1224 net489
*1225 net49
*1226 net490
*1227 net491
*1228 net492
*1229 net493
*1230 net494
*1231 net495
*1232 net496
*1233 net497
*1234 net498
*1235 net499
*1236 net5
*1237 net50
*1238 net500
*1239 net501
*1240 net502
*1241 net503
*1242 net504
*1243 net505
*1244 net506
*1245 net507
*1246 net508
*1247 net509
*1248 net51
*1249 net510
*1250 net511
*1251 net512
*1252 net513
*1253 net514
*1254 net515
*1255 net516
*1256 net517
*1257 net518
*1258 net519
*1259 net52
*1260 net520
*1261 net521
*1262 net522
*1263 net523
*1264 net524
*1265 net525
*1266 net526
*1267 net527
*1268 net528
*1269 net529
*1270 net53
*1271 net530
*1272 net531
*1273 net532
*1274 net533
*1275 net534
*1276 net535
*1277 net536
*1278 net537
*1279 net538
*1280 net539
*1281 net54
*1282 net540
*1283 net541
*1284 net542
*1285 net543
*1286 net544
*1287 net545
*1288 net546
*1289 net547
*1290 net548
*1291 net549
*1292 net55
*1293 net550
*1294 net551
*1295 net552
*1296 net553
*1297 net554
*1298 net555
*1299 net556
*1300 net557
*1301 net558
*1302 net559
*1303 net56
*1304 net560
*1305 net561
*1306 net562
*1307 net563
*1308 net564
*1309 net565
*1310 net566
*1311 net567
*1312 net568
*1313 net569
*1314 net57
*1315 net570
*1316 net571
*1317 net572
*1318 net573
*1319 net574
*1320 net575
*1321 net576
*1322 net577
*1323 net578
*1324 net579
*1325 net58
*1326 net580
*1327 net581
*1328 net582
*1329 net583
*1330 net584
*1331 net585
*1332 net586
*1333 net587
*1334 net588
*1335 net589
*1336 net59
*1337 net590
*1338 net591
*1339 net592
*1340 net593
*1341 net594
*1342 net595
*1343 net596
*1344 net597
*1345 net598
*1346 net599
*1347 net6
*1348 net60
*1349 net600
*1350 net601
*1351 net602
*1352 net603
*1353 net604
*1354 net605
*1355 net606
*1356 net607
*1357 net608
*1358 net609
*1359 net61
*1360 net610
*1361 net611
*1362 net612
*1363 net613
*1364 net614
*1365 net615
*1366 net616
*1367 net617
*1368 net618
*1369 net619
*1370 net62
*1371 net620
*1372 net621
*1373 net622
*1374 net623
*1375 net624
*1376 net625
*1377 net626
*1378 net627
*1379 net628
*1380 net629
*1381 net63
*1382 net630
*1383 net631
*1384 net632
*1385 net633
*1386 net634
*1387 net635
*1388 net636
*1389 net637
*1390 net638
*1391 net639
*1392 net64
*1393 net640
*1394 net641
*1395 net642
*1396 net643
*1397 net644
*1398 net645
*1399 net646
*1400 net647
*1401 net648
*1402 net649
*1403 net65
*1404 net650
*1405 net651
*1406 net652
*1407 net653
*1408 net654
*1409 net655
*1410 net656
*1411 net657
*1412 net658
*1413 net659
*1414 net66
*1415 net660
*1416 net661
*1417 net662
*1418 net663
*1419 net664
*1420 net665
*1421 net666
*1422 net667
*1423 net668
*1424 net669
*1425 net67
*1426 net670
*1427 net671
*1428 net672
*1429 net673
*1430 net674
*1431 net675
*1432 net676
*1433 net677
*1434 net678
*1435 net679
*1436 net68
*1437 net680
*1438 net681
*1439 net682
*1440 net683
*1441 net684
*1442 net685
*1443 net686
*1444 net687
*1445 net688
*1446 net689
*1447 net69
*1448 net690
*1449 net691
*1450 net692
*1451 net693
*1452 net694
*1453 net695
*1454 net696
*1455 net697
*1456 net698
*1457 net699
*1458 net7
*1459 net70
*1460 net700
*1461 net701
*1462 net702
*1463 net703
*1464 net704
*1465 net705
*1466 net706
*1467 net707
*1468 net708
*1469 net709
*1470 net71
*1471 net710
*1472 net711
*1473 net712
*1474 net713
*1475 net714
*1476 net715
*1477 net716
*1478 net717
*1479 net718
*1480 net719
*1481 net72
*1482 net720
*1483 net721
*1484 net722
*1485 net723
*1486 net724
*1487 net725
*1488 net726
*1489 net727
*1490 net728
*1491 net729
*1492 net73
*1493 net730
*1494 net731
*1495 net732
*1496 net733
*1497 net734
*1498 net735
*1499 net736
*1500 net737
*1501 net738
*1502 net739
*1503 net74
*1504 net740
*1505 net741
*1506 net742
*1507 net743
*1508 net744
*1509 net745
*1510 net746
*1511 net747
*1512 net748
*1513 net749
*1514 net75
*1515 net750
*1516 net751
*1517 net752
*1518 net753
*1519 net754
*1520 net755
*1521 net756
*1522 net76
*1523 net77
*1524 net78
*1525 net79
*1526 net8
*1527 net80
*1528 net81
*1529 net82
*1530 net83
*1531 net84
*1532 net85
*1533 net86
*1534 net87
*1535 net88
*1536 net89
*1537 net9
*1538 net90
*1539 net91
*1540 net92
*1541 net93
*1542 net94
*1543 net95
*1544 net96
*1545 net97
*1546 net98
*1547 net99
*1548 ANTENNA__0444__S
*1549 ANTENNA__0445__S
*1550 ANTENNA__0446__S
*1551 ANTENNA__0447__S
*1552 ANTENNA__0448__S
*1553 ANTENNA__0449__S
*1554 ANTENNA__0450__S
*1555 ANTENNA__0451__S
*1556 ANTENNA__0452__S
*1557 ANTENNA__0453__S
*1558 ANTENNA__0454__S
*1559 ANTENNA__0455__S
*1560 ANTENNA__0456__S
*1561 ANTENNA__0457__S
*1562 ANTENNA__0458__S
*1563 ANTENNA__0459__S
*1564 ANTENNA__0460__S
*1565 ANTENNA__0461__S
*1566 ANTENNA__0462__S
*1567 ANTENNA__0463__S
*1568 ANTENNA__0464__S
*1569 ANTENNA__0465__S
*1570 ANTENNA__0466__S
*1571 ANTENNA__0467__S
*1572 ANTENNA__0468__S
*1573 ANTENNA__0469__S
*1574 ANTENNA__0470__S
*1575 ANTENNA__0471__S
*1576 ANTENNA__0472__S
*1577 ANTENNA__0473__S
*1578 ANTENNA__0474__S
*1579 ANTENNA__0475__S
*1580 ANTENNA__0477__S
*1581 ANTENNA__0478__S
*1582 ANTENNA__0479__S
*1583 ANTENNA__0480__S
*1584 ANTENNA__0481__S
*1585 ANTENNA__0482__S
*1586 ANTENNA__0483__S
*1587 ANTENNA__0484__S
*1588 ANTENNA__0485__S
*1589 ANTENNA__0486__S
*1590 ANTENNA__0487__S
*1591 ANTENNA__0488__S
*1592 ANTENNA__0489__S
*1593 ANTENNA__0490__S
*1594 ANTENNA__0491__S
*1595 ANTENNA__0492__S
*1596 ANTENNA__0493__S
*1597 ANTENNA__0494__S
*1598 ANTENNA__0495__S
*1599 ANTENNA__0496__S
*1600 ANTENNA__0497__S
*1601 ANTENNA__0498__S
*1602 ANTENNA__0499__S
*1603 ANTENNA__0500__S
*1604 ANTENNA__0501__S
*1605 ANTENNA__0502__S
*1606 ANTENNA__0503__S
*1607 ANTENNA__0504__S
*1608 ANTENNA__0505__S
*1609 ANTENNA__0506__S
*1610 ANTENNA__0507__S
*1611 ANTENNA__0508__S
*1612 ANTENNA__0509__B
*1613 ANTENNA__0510__A_N
*1614 ANTENNA__0512__A_N
*1615 ANTENNA__0513__A
*1616 ANTENNA__0515__A_N
*1617 ANTENNA__0516__B
*1618 ANTENNA__0533__S
*1619 ANTENNA__0534__S
*1620 ANTENNA__0535__S
*1621 ANTENNA__0536__S
*1622 ANTENNA__0537__S
*1623 ANTENNA__0538__S
*1624 ANTENNA__0539__S
*1625 ANTENNA__0540__S
*1626 ANTENNA__0541__S
*1627 ANTENNA__0542__S
*1628 ANTENNA__0543__S
*1629 ANTENNA__0544__S
*1630 ANTENNA__0545__S
*1631 ANTENNA__0546__S
*1632 ANTENNA__0547__S
*1633 ANTENNA__0548__S
*1634 ANTENNA__0549__S
*1635 ANTENNA__0550__S
*1636 ANTENNA__0551__S
*1637 ANTENNA__0552__S
*1638 ANTENNA__0553__S
*1639 ANTENNA__0554__S
*1640 ANTENNA__0555__S
*1641 ANTENNA__0556__S
*1642 ANTENNA__0557__S
*1643 ANTENNA__0558__S
*1644 ANTENNA__0559__S
*1645 ANTENNA__0560__S
*1646 ANTENNA__0561__S
*1647 ANTENNA__0562__S
*1648 ANTENNA__0563__S
*1649 ANTENNA__0564__S
*1650 ANTENNA__0566__S
*1651 ANTENNA__0567__S
*1652 ANTENNA__0568__S
*1653 ANTENNA__0569__S
*1654 ANTENNA__0570__S
*1655 ANTENNA__0571__S
*1656 ANTENNA__0572__S
*1657 ANTENNA__0573__S
*1658 ANTENNA__0574__S
*1659 ANTENNA__0575__S
*1660 ANTENNA__0576__S
*1661 ANTENNA__0577__S
*1662 ANTENNA__0578__S
*1663 ANTENNA__0579__S
*1664 ANTENNA__0580__S
*1665 ANTENNA__0581__S
*1666 ANTENNA__0582__S
*1667 ANTENNA__0583__S
*1668 ANTENNA__0584__S
*1669 ANTENNA__0585__S
*1670 ANTENNA__0586__S
*1671 ANTENNA__0587__S
*1672 ANTENNA__0588__S
*1673 ANTENNA__0589__S
*1674 ANTENNA__0590__S
*1675 ANTENNA__0591__S
*1676 ANTENNA__0592__S
*1677 ANTENNA__0593__S
*1678 ANTENNA__0594__S
*1679 ANTENNA__0595__S
*1680 ANTENNA__0596__S
*1681 ANTENNA__0597__S
*1682 ANTENNA__0599__S
*1683 ANTENNA__0600__S
*1684 ANTENNA__0601__S
*1685 ANTENNA__0602__S
*1686 ANTENNA__0603__S
*1687 ANTENNA__0604__S
*1688 ANTENNA__0605__S
*1689 ANTENNA__0606__S
*1690 ANTENNA__0607__S
*1691 ANTENNA__0608__S
*1692 ANTENNA__0609__S
*1693 ANTENNA__0610__S
*1694 ANTENNA__0611__S
*1695 ANTENNA__0612__S
*1696 ANTENNA__0613__S
*1697 ANTENNA__0614__S
*1698 ANTENNA__0615__S
*1699 ANTENNA__0616__S
*1700 ANTENNA__0617__S
*1701 ANTENNA__0618__S
*1702 ANTENNA__0619__S
*1703 ANTENNA__0620__S
*1704 ANTENNA__0621__S
*1705 ANTENNA__0622__S
*1706 ANTENNA__0623__S
*1707 ANTENNA__0624__S
*1708 ANTENNA__0625__S
*1709 ANTENNA__0626__S
*1710 ANTENNA__0627__S
*1711 ANTENNA__0628__S
*1712 ANTENNA__0629__S
*1713 ANTENNA__0630__S
*1714 ANTENNA__0632__S
*1715 ANTENNA__0633__S
*1716 ANTENNA__0634__S
*1717 ANTENNA__0635__S
*1718 ANTENNA__0636__S
*1719 ANTENNA__0637__S
*1720 ANTENNA__0638__S
*1721 ANTENNA__0639__S
*1722 ANTENNA__0640__S
*1723 ANTENNA__0641__S
*1724 ANTENNA__0642__S
*1725 ANTENNA__0643__S
*1726 ANTENNA__0644__S
*1727 ANTENNA__0645__S
*1728 ANTENNA__0646__S
*1729 ANTENNA__0647__S
*1730 ANTENNA__0648__S
*1731 ANTENNA__0649__S
*1732 ANTENNA__0650__S
*1733 ANTENNA__0651__S
*1734 ANTENNA__0652__S
*1735 ANTENNA__0653__S
*1736 ANTENNA__0654__S
*1737 ANTENNA__0655__S
*1738 ANTENNA__0656__S
*1739 ANTENNA__0657__S
*1740 ANTENNA__0658__S
*1741 ANTENNA__0659__S
*1742 ANTENNA__0660__S
*1743 ANTENNA__0661__S
*1744 ANTENNA__0662__S
*1745 ANTENNA__0663__S
*1746 ANTENNA__0671__A
*1747 ANTENNA__0673__A1
*1748 ANTENNA__0674__A1
*1749 ANTENNA__0675__A1
*1750 ANTENNA__0676__A
*1751 ANTENNA__0676__B
*1752 ANTENNA__0677__A1
*1753 ANTENNA__0677__B1
*1754 ANTENNA__0680__S
*1755 ANTENNA__0681__S
*1756 ANTENNA__0682__S
*1757 ANTENNA__0683__S
*1758 ANTENNA__0684__S
*1759 ANTENNA__0685__S
*1760 ANTENNA__0686__S
*1761 ANTENNA__0687__S
*1762 ANTENNA__0688__S
*1763 ANTENNA__0689__S
*1764 ANTENNA__0690__S
*1765 ANTENNA__0691__S
*1766 ANTENNA__0692__S
*1767 ANTENNA__0693__S
*1768 ANTENNA__0694__S
*1769 ANTENNA__0695__S
*1770 ANTENNA__0696__S
*1771 ANTENNA__0697__S
*1772 ANTENNA__0698__S
*1773 ANTENNA__0699__S
*1774 ANTENNA__0700__S
*1775 ANTENNA__0701__S
*1776 ANTENNA__0702__S
*1777 ANTENNA__0703__S
*1778 ANTENNA__0704__S
*1779 ANTENNA__0705__S
*1780 ANTENNA__0706__S
*1781 ANTENNA__0707__S
*1782 ANTENNA__0708__S