*SPEF "ieee 1481-1999"
*DESIGN "wishbone_nn"
*DATE "11:11:11 Fri 11 11, 1111"
*VENDOR "OpenRCX"
*PROGRAM "Parallel Extraction"
*VERSION "1.0"
*DESIGN_FLOW "NAME_SCOPE LOCAL" "PIN_CAP NONE"
*DIVIDER /
*DELIMITER :
*BUS_DELIMITER []
*T_UNIT 1 NS
*C_UNIT 1 PF
*R_UNIT 1 OHM
*L_UNIT 1 HENRY

*NAME_MAP
*3 wb_clk_i
*4 wb_rst_i
*5 wbs_ack_o
*6 wbs_adr_i[0]
*7 wbs_adr_i[10]
*8 wbs_adr_i[11]
*9 wbs_adr_i[12]
*10 wbs_adr_i[13]
*11 wbs_adr_i[14]
*12 wbs_adr_i[15]
*13 wbs_adr_i[16]
*14 wbs_adr_i[17]
*15 wbs_adr_i[18]
*16 wbs_adr_i[19]
*17 wbs_adr_i[1]
*18 wbs_adr_i[20]
*19 wbs_adr_i[21]
*20 wbs_adr_i[22]
*21 wbs_adr_i[23]
*22 wbs_adr_i[24]
*23 wbs_adr_i[25]
*24 wbs_adr_i[26]
*25 wbs_adr_i[27]
*26 wbs_adr_i[28]
*27 wbs_adr_i[29]
*28 wbs_adr_i[2]
*29 wbs_adr_i[30]
*30 wbs_adr_i[31]
*31 wbs_adr_i[3]
*32 wbs_adr_i[4]
*33 wbs_adr_i[5]
*34 wbs_adr_i[6]
*35 wbs_adr_i[7]
*36 wbs_adr_i[8]
*37 wbs_adr_i[9]
*38 wbs_cyc_i
*39 wbs_dat_i[0]
*40 wbs_dat_i[10]
*41 wbs_dat_i[11]
*42 wbs_dat_i[12]
*43 wbs_dat_i[13]
*44 wbs_dat_i[14]
*45 wbs_dat_i[15]
*46 wbs_dat_i[16]
*47 wbs_dat_i[17]
*48 wbs_dat_i[18]
*49 wbs_dat_i[19]
*50 wbs_dat_i[1]
*51 wbs_dat_i[20]
*52 wbs_dat_i[21]
*53 wbs_dat_i[22]
*54 wbs_dat_i[23]
*55 wbs_dat_i[24]
*56 wbs_dat_i[25]
*57 wbs_dat_i[26]
*58 wbs_dat_i[27]
*59 wbs_dat_i[28]
*60 wbs_dat_i[29]
*61 wbs_dat_i[2]
*62 wbs_dat_i[30]
*63 wbs_dat_i[31]
*64 wbs_dat_i[3]
*65 wbs_dat_i[4]
*66 wbs_dat_i[5]
*67 wbs_dat_i[6]
*68 wbs_dat_i[7]
*69 wbs_dat_i[8]
*70 wbs_dat_i[9]
*71 wbs_dat_o[0]
*72 wbs_dat_o[10]
*73 wbs_dat_o[11]
*74 wbs_dat_o[12]
*75 wbs_dat_o[13]
*76 wbs_dat_o[14]
*77 wbs_dat_o[15]
*78 wbs_dat_o[16]
*79 wbs_dat_o[17]
*80 wbs_dat_o[18]
*81 wbs_dat_o[19]
*82 wbs_dat_o[1]
*83 wbs_dat_o[20]
*84 wbs_dat_o[21]
*85 wbs_dat_o[22]
*86 wbs_dat_o[23]
*87 wbs_dat_o[24]
*88 wbs_dat_o[25]
*89 wbs_dat_o[26]
*90 wbs_dat_o[27]
*91 wbs_dat_o[28]
*92 wbs_dat_o[29]
*93 wbs_dat_o[2]
*94 wbs_dat_o[30]
*95 wbs_dat_o[31]
*96 wbs_dat_o[3]
*97 wbs_dat_o[4]
*98 wbs_dat_o[5]
*99 wbs_dat_o[6]
*100 wbs_dat_o[7]
*101 wbs_dat_o[8]
*102 wbs_dat_o[9]
*103 wbs_sel_i[0]
*104 wbs_sel_i[1]
*105 wbs_sel_i[2]
*106 wbs_sel_i[3]
*107 wbs_stb_i
*108 wbs_we_i
*109 _0000_
*110 _0001_
*111 _0002_
*112 _0003_
*113 _0004_
*114 _0005_
*115 _0006_
*116 _0007_
*117 _0008_
*118 _0009_
*119 _0010_
*120 _0011_
*121 _0012_
*122 _0013_
*123 _0014_
*124 _0015_
*125 _0016_
*126 _0017_
*127 _0018_
*128 _0019_
*129 _0020_
*130 _0021_
*131 _0022_
*132 _0023_
*133 _0024_
*134 _0025_
*135 _0026_
*136 _0027_
*137 _0028_
*138 _0029_
*139 _0030_
*140 _0031_
*141 _0032_
*142 _0033_
*143 _0034_
*144 _0035_
*145 _0036_
*146 _0037_
*147 _0038_
*148 _0039_
*149 _0040_
*150 _0041_
*151 _0042_
*152 _0043_
*153 _0044_
*154 _0045_
*155 _0046_
*156 _0047_
*157 _0048_
*158 _0049_
*159 _0050_
*160 _0051_
*161 _0052_
*162 _0053_
*163 _0054_
*164 _0055_
*165 _0056_
*166 _0057_
*167 _0058_
*168 _0059_
*169 _0060_
*170 _0061_
*171 _0062_
*172 _0063_
*173 _0064_
*174 _0065_
*175 _0066_
*176 _0067_
*177 _0068_
*178 _0069_
*179 _0070_
*180 _0071_
*181 _0072_
*182 _0073_
*183 _0074_
*184 _0075_
*185 _0076_
*186 _0077_
*187 _0078_
*188 _0079_
*189 _0080_
*190 _0081_
*191 _0082_
*192 _0083_
*193 _0084_
*194 _0085_
*195 _0086_
*196 _0087_
*197 _0088_
*198 _0089_
*199 _0090_
*200 _0091_
*201 _0092_
*202 _0093_
*203 _0094_
*204 _0095_
*205 _0096_
*206 _0097_
*207 _0098_
*208 _0099_
*209 _0100_
*210 _0101_
*211 _0102_
*212 _0103_
*213 _0104_
*214 _0105_
*215 _0106_
*216 _0107_
*217 _0108_
*218 _0109_
*219 _0110_
*220 _0111_
*221 _0112_
*222 _0113_
*223 _0114_
*224 _0115_
*225 _0116_
*226 _0117_
*227 _0118_
*228 _0119_
*229 _0120_
*230 _0121_
*231 _0122_
*232 _0123_
*233 _0124_
*234 _0125_
*235 _0126_
*236 _0127_
*237 _0128_
*238 _0129_
*239 _0130_
*240 _0131_
*241 _0132_
*242 _0133_
*243 _0134_
*244 _0135_
*245 _0136_
*246 _0137_
*247 _0138_
*248 _0139_
*249 _0140_
*250 _0141_
*251 _0142_
*252 _0143_
*253 _0144_
*254 _0145_
*255 _0146_
*256 _0147_
*257 _0148_
*258 _0149_
*259 _0150_
*260 _0151_
*261 _0152_
*262 _0153_
*263 _0154_
*264 _0155_
*265 _0156_
*266 _0157_
*267 _0158_
*268 _0159_
*269 _0160_
*270 _0161_
*271 _0162_
*272 _0163_
*273 _0164_
*274 _0165_
*275 _0166_
*276 _0167_
*277 _0168_
*278 _0169_
*279 _0170_
*280 _0171_
*281 _0172_
*282 _0173_
*283 _0174_
*284 _0175_
*285 _0176_
*286 _0177_
*287 _0178_
*288 _0179_
*289 _0180_
*290 _0181_
*291 _0182_
*292 _0183_
*293 _0184_
*294 _0185_
*295 _0186_
*296 _0187_
*297 _0188_
*298 _0189_
*299 _0190_
*300 _0191_
*301 _0192_
*302 _0193_
*303 _0194_
*304 _0195_
*305 _0196_
*306 _0197_
*307 _0198_
*308 _0199_
*309 _0200_
*310 _0201_
*311 _0202_
*312 _0203_
*313 _0204_
*314 _0205_
*315 _0206_
*316 _0207_
*317 _0208_
*318 _0209_
*319 _0210_
*320 _0211_
*321 _0212_
*322 _0213_
*323 _0214_
*324 _0215_
*325 _0216_
*326 _0217_
*327 _0218_
*328 _0219_
*329 _0220_
*330 _0221_
*331 _0222_
*332 _0223_
*333 _0224_
*334 _0225_
*335 _0226_
*336 _0227_
*337 _0228_
*338 _0229_
*339 _0230_
*340 _0231_
*341 _0232_
*342 _0233_
*343 _0234_
*344 _0235_
*345 _0236_
*346 _0237_
*347 _0238_
*348 _0239_
*349 _0240_
*350 _0241_
*351 _0242_
*352 _0243_
*353 _0244_
*354 _0245_
*355 _0246_
*356 _0247_
*357 _0248_
*358 _0249_
*359 _0250_
*360 _0251_
*361 _0252_
*362 _0253_
*363 _0254_
*364 _0255_
*365 _0256_
*366 _0257_
*367 _0258_
*368 _0259_
*369 _0260_
*370 _0261_
*371 _0262_
*372 _0263_
*373 _0264_
*374 _0265_
*375 _0266_
*376 _0267_
*377 _0268_
*378 _0269_
*379 _0270_
*380 _0271_
*381 _0272_
*382 _0273_
*383 _0274_
*384 _0275_
*385 _0276_
*386 _0277_
*387 _0278_
*388 _0279_
*389 _0280_
*390 _0281_
*391 _0282_
*392 _0283_
*393 _0284_
*394 _0285_
*395 _0286_
*396 _0287_
*397 _0288_
*398 _0289_
*399 _0290_
*400 _0291_
*401 _0292_
*402 _0293_
*403 _0294_
*404 _0295_
*405 _0296_
*406 _0297_
*407 _0298_
*408 _0299_
*409 _0300_
*410 _0301_
*411 _0302_
*412 _0303_
*413 _0304_
*414 _0305_
*415 _0306_
*416 _0307_
*417 _0308_
*418 _0309_
*419 _0310_
*420 _0311_
*421 _0312_
*422 _0313_
*423 _0314_
*424 _0315_
*425 _0316_
*426 _0317_
*427 _0318_
*428 _0319_
*429 _0320_
*430 _0321_
*431 _0322_
*432 _0323_
*433 _0324_
*434 _0325_
*435 _0326_
*436 _0327_
*437 _0328_
*438 _0329_
*439 _0330_
*440 _0331_
*441 _0332_
*442 _0333_
*443 _0334_
*444 _0335_
*445 _0336_
*446 _0337_
*447 _0338_
*448 _0339_
*449 _0340_
*450 _0341_
*451 _0342_
*452 _0343_
*453 _0344_
*454 _0345_
*455 _0346_
*456 _0347_
*457 _0348_
*458 _0349_
*459 _0350_
*460 _0351_
*461 _0352_
*462 _0353_
*463 _0354_
*464 _0355_
*465 _0356_
*466 _0357_
*467 _0358_
*468 _0359_
*469 _0360_
*470 _0361_
*471 _0362_
*472 _0363_
*473 _0364_
*474 _0365_
*475 _0366_
*476 _0367_
*477 _0368_
*478 _0369_
*479 _0370_
*480 _0371_
*481 _0372_
*482 _0373_
*483 _0374_
*484 _0375_
*485 _0376_
*486 _0377_
*487 _0378_
*488 _0379_
*489 _0380_
*490 _0381_
*491 _0382_
*492 _0383_
*493 _0384_
*494 _0385_
*495 _0386_
*496 _0387_
*497 _0388_
*498 _0389_
*499 _0390_
*500 _0391_
*501 _0392_
*502 _0393_
*503 _0394_
*504 _0395_
*505 _0396_
*506 _0397_
*507 _0398_
*508 _0399_
*509 _0400_
*510 _0401_
*511 _0402_
*512 _0403_
*513 _0404_
*514 _0405_
*515 _0406_
*516 _0407_
*517 _0408_
*518 clknet_0_wb_clk_i
*519 clknet_1_0__leaf_wb_clk_i
*520 clknet_1_1__leaf_wb_clk_i
*521 clknet_leaf_0_wb_clk_i
*522 clknet_leaf_10_wb_clk_i
*523 clknet_leaf_11_wb_clk_i
*524 clknet_leaf_12_wb_clk_i
*525 clknet_leaf_13_wb_clk_i
*526 clknet_leaf_14_wb_clk_i
*527 clknet_leaf_15_wb_clk_i
*528 clknet_leaf_16_wb_clk_i
*529 clknet_leaf_17_wb_clk_i
*530 clknet_leaf_18_wb_clk_i
*531 clknet_leaf_19_wb_clk_i
*532 clknet_leaf_1_wb_clk_i
*533 clknet_leaf_20_wb_clk_i
*534 clknet_leaf_21_wb_clk_i
*535 clknet_leaf_22_wb_clk_i
*536 clknet_leaf_23_wb_clk_i
*537 clknet_leaf_24_wb_clk_i
*538 clknet_leaf_25_wb_clk_i
*539 clknet_leaf_26_wb_clk_i
*540 clknet_leaf_2_wb_clk_i
*541 clknet_leaf_3_wb_clk_i
*542 clknet_leaf_4_wb_clk_i
*543 clknet_leaf_5_wb_clk_i
*544 clknet_leaf_6_wb_clk_i
*545 clknet_leaf_7_wb_clk_i
*546 clknet_leaf_8_wb_clk_i
*547 clknet_leaf_9_wb_clk_i
*548 fifo_in\.FIFO\[0\]\[0\]
*549 fifo_in\.FIFO\[0\]\[10\]
*550 fifo_in\.FIFO\[0\]\[11\]
*551 fifo_in\.FIFO\[0\]\[12\]
*552 fifo_in\.FIFO\[0\]\[13\]
*553 fifo_in\.FIFO\[0\]\[14\]
*554 fifo_in\.FIFO\[0\]\[15\]
*555 fifo_in\.FIFO\[0\]\[16\]
*556 fifo_in\.FIFO\[0\]\[17\]
*557 fifo_in\.FIFO\[0\]\[18\]
*558 fifo_in\.FIFO\[0\]\[19\]
*559 fifo_in\.FIFO\[0\]\[1\]
*560 fifo_in\.FIFO\[0\]\[20\]
*561 fifo_in\.FIFO\[0\]\[21\]
*562 fifo_in\.FIFO\[0\]\[22\]
*563 fifo_in\.FIFO\[0\]\[23\]
*564 fifo_in\.FIFO\[0\]\[24\]
*565 fifo_in\.FIFO\[0\]\[25\]
*566 fifo_in\.FIFO\[0\]\[26\]
*567 fifo_in\.FIFO\[0\]\[27\]
*568 fifo_in\.FIFO\[0\]\[28\]
*569 fifo_in\.FIFO\[0\]\[29\]
*570 fifo_in\.FIFO\[0\]\[2\]
*571 fifo_in\.FIFO\[0\]\[30\]
*572 fifo_in\.FIFO\[0\]\[31\]
*573 fifo_in\.FIFO\[0\]\[3\]
*574 fifo_in\.FIFO\[0\]\[4\]
*575 fifo_in\.FIFO\[0\]\[5\]
*576 fifo_in\.FIFO\[0\]\[6\]
*577 fifo_in\.FIFO\[0\]\[7\]
*578 fifo_in\.FIFO\[0\]\[8\]
*579 fifo_in\.FIFO\[0\]\[9\]
*580 fifo_in\.FIFO\[1\]\[0\]
*581 fifo_in\.FIFO\[1\]\[10\]
*582 fifo_in\.FIFO\[1\]\[11\]
*583 fifo_in\.FIFO\[1\]\[12\]
*584 fifo_in\.FIFO\[1\]\[13\]
*585 fifo_in\.FIFO\[1\]\[14\]
*586 fifo_in\.FIFO\[1\]\[15\]
*587 fifo_in\.FIFO\[1\]\[16\]
*588 fifo_in\.FIFO\[1\]\[17\]
*589 fifo_in\.FIFO\[1\]\[18\]
*590 fifo_in\.FIFO\[1\]\[19\]
*591 fifo_in\.FIFO\[1\]\[1\]
*592 fifo_in\.FIFO\[1\]\[20\]
*593 fifo_in\.FIFO\[1\]\[21\]
*594 fifo_in\.FIFO\[1\]\[22\]
*595 fifo_in\.FIFO\[1\]\[23\]
*596 fifo_in\.FIFO\[1\]\[24\]
*597 fifo_in\.FIFO\[1\]\[25\]
*598 fifo_in\.FIFO\[1\]\[26\]
*599 fifo_in\.FIFO\[1\]\[27\]
*600 fifo_in\.FIFO\[1\]\[28\]
*601 fifo_in\.FIFO\[1\]\[29\]
*602 fifo_in\.FIFO\[1\]\[2\]
*603 fifo_in\.FIFO\[1\]\[30\]
*604 fifo_in\.FIFO\[1\]\[31\]
*605 fifo_in\.FIFO\[1\]\[3\]
*606 fifo_in\.FIFO\[1\]\[4\]
*607 fifo_in\.FIFO\[1\]\[5\]
*608 fifo_in\.FIFO\[1\]\[6\]
*609 fifo_in\.FIFO\[1\]\[7\]
*610 fifo_in\.FIFO\[1\]\[8\]
*611 fifo_in\.FIFO\[1\]\[9\]
*612 fifo_in\.FIFO\[2\]\[0\]
*613 fifo_in\.FIFO\[2\]\[10\]
*614 fifo_in\.FIFO\[2\]\[11\]
*615 fifo_in\.FIFO\[2\]\[12\]
*616 fifo_in\.FIFO\[2\]\[13\]
*617 fifo_in\.FIFO\[2\]\[14\]
*618 fifo_in\.FIFO\[2\]\[15\]
*619 fifo_in\.FIFO\[2\]\[16\]
*620 fifo_in\.FIFO\[2\]\[17\]
*621 fifo_in\.FIFO\[2\]\[18\]
*622 fifo_in\.FIFO\[2\]\[19\]
*623 fifo_in\.FIFO\[2\]\[1\]
*624 fifo_in\.FIFO\[2\]\[20\]
*625 fifo_in\.FIFO\[2\]\[21\]
*626 fifo_in\.FIFO\[2\]\[22\]
*627 fifo_in\.FIFO\[2\]\[23\]
*628 fifo_in\.FIFO\[2\]\[24\]
*629 fifo_in\.FIFO\[2\]\[25\]
*630 fifo_in\.FIFO\[2\]\[26\]
*631 fifo_in\.FIFO\[2\]\[27\]
*632 fifo_in\.FIFO\[2\]\[28\]
*633 fifo_in\.FIFO\[2\]\[29\]
*634 fifo_in\.FIFO\[2\]\[2\]
*635 fifo_in\.FIFO\[2\]\[30\]
*636 fifo_in\.FIFO\[2\]\[31\]
*637 fifo_in\.FIFO\[2\]\[3\]
*638 fifo_in\.FIFO\[2\]\[4\]
*639 fifo_in\.FIFO\[2\]\[5\]
*640 fifo_in\.FIFO\[2\]\[6\]
*641 fifo_in\.FIFO\[2\]\[7\]
*642 fifo_in\.FIFO\[2\]\[8\]
*643 fifo_in\.FIFO\[2\]\[9\]
*644 fifo_in\.FIFO\[3\]\[0\]
*645 fifo_in\.FIFO\[3\]\[10\]
*646 fifo_in\.FIFO\[3\]\[11\]
*647 fifo_in\.FIFO\[3\]\[12\]
*648 fifo_in\.FIFO\[3\]\[13\]
*649 fifo_in\.FIFO\[3\]\[14\]
*650 fifo_in\.FIFO\[3\]\[15\]
*651 fifo_in\.FIFO\[3\]\[16\]
*652 fifo_in\.FIFO\[3\]\[17\]
*653 fifo_in\.FIFO\[3\]\[18\]
*654 fifo_in\.FIFO\[3\]\[19\]
*655 fifo_in\.FIFO\[3\]\[1\]
*656 fifo_in\.FIFO\[3\]\[20\]
*657 fifo_in\.FIFO\[3\]\[21\]
*658 fifo_in\.FIFO\[3\]\[22\]
*659 fifo_in\.FIFO\[3\]\[23\]
*660 fifo_in\.FIFO\[3\]\[24\]
*661 fifo_in\.FIFO\[3\]\[25\]
*662 fifo_in\.FIFO\[3\]\[26\]
*663 fifo_in\.FIFO\[3\]\[27\]
*664 fifo_in\.FIFO\[3\]\[28\]
*665 fifo_in\.FIFO\[3\]\[29\]
*666 fifo_in\.FIFO\[3\]\[2\]
*667 fifo_in\.FIFO\[3\]\[30\]
*668 fifo_in\.FIFO\[3\]\[31\]
*669 fifo_in\.FIFO\[3\]\[3\]
*670 fifo_in\.FIFO\[3\]\[4\]
*671 fifo_in\.FIFO\[3\]\[5\]
*672 fifo_in\.FIFO\[3\]\[6\]
*673 fifo_in\.FIFO\[3\]\[7\]
*674 fifo_in\.FIFO\[3\]\[8\]
*675 fifo_in\.FIFO\[3\]\[9\]
*676 fifo_in\.FIFO\[4\]\[0\]
*677 fifo_in\.FIFO\[4\]\[10\]
*678 fifo_in\.FIFO\[4\]\[11\]
*679 fifo_in\.FIFO\[4\]\[12\]
*680 fifo_in\.FIFO\[4\]\[13\]
*681 fifo_in\.FIFO\[4\]\[14\]
*682 fifo_in\.FIFO\[4\]\[15\]
*683 fifo_in\.FIFO\[4\]\[16\]
*684 fifo_in\.FIFO\[4\]\[17\]
*685 fifo_in\.FIFO\[4\]\[18\]
*686 fifo_in\.FIFO\[4\]\[19\]
*687 fifo_in\.FIFO\[4\]\[1\]
*688 fifo_in\.FIFO\[4\]\[20\]
*689 fifo_in\.FIFO\[4\]\[21\]
*690 fifo_in\.FIFO\[4\]\[22\]
*691 fifo_in\.FIFO\[4\]\[23\]
*692 fifo_in\.FIFO\[4\]\[24\]
*693 fifo_in\.FIFO\[4\]\[25\]
*694 fifo_in\.FIFO\[4\]\[26\]
*695 fifo_in\.FIFO\[4\]\[27\]
*696 fifo_in\.FIFO\[4\]\[28\]
*697 fifo_in\.FIFO\[4\]\[29\]
*698 fifo_in\.FIFO\[4\]\[2\]
*699 fifo_in\.FIFO\[4\]\[30\]
*700 fifo_in\.FIFO\[4\]\[31\]
*701 fifo_in\.FIFO\[4\]\[3\]
*702 fifo_in\.FIFO\[4\]\[4\]
*703 fifo_in\.FIFO\[4\]\[5\]
*704 fifo_in\.FIFO\[4\]\[6\]
*705 fifo_in\.FIFO\[4\]\[7\]
*706 fifo_in\.FIFO\[4\]\[8\]
*707 fifo_in\.FIFO\[4\]\[9\]
*708 fifo_in\.FIFO\[5\]\[0\]
*709 fifo_in\.FIFO\[5\]\[10\]
*710 fifo_in\.FIFO\[5\]\[11\]
*711 fifo_in\.FIFO\[5\]\[12\]
*712 fifo_in\.FIFO\[5\]\[13\]
*713 fifo_in\.FIFO\[5\]\[14\]
*714 fifo_in\.FIFO\[5\]\[15\]
*715 fifo_in\.FIFO\[5\]\[16\]
*716 fifo_in\.FIFO\[5\]\[17\]
*717 fifo_in\.FIFO\[5\]\[18\]
*718 fifo_in\.FIFO\[5\]\[19\]
*719 fifo_in\.FIFO\[5\]\[1\]
*720 fifo_in\.FIFO\[5\]\[20\]
*721 fifo_in\.FIFO\[5\]\[21\]
*722 fifo_in\.FIFO\[5\]\[22\]
*723 fifo_in\.FIFO\[5\]\[23\]
*724 fifo_in\.FIFO\[5\]\[24\]
*725 fifo_in\.FIFO\[5\]\[25\]
*726 fifo_in\.FIFO\[5\]\[26\]
*727 fifo_in\.FIFO\[5\]\[27\]
*728 fifo_in\.FIFO\[5\]\[28\]
*729 fifo_in\.FIFO\[5\]\[29\]
*730 fifo_in\.FIFO\[5\]\[2\]
*731 fifo_in\.FIFO\[5\]\[30\]
*732 fifo_in\.FIFO\[5\]\[31\]
*733 fifo_in\.FIFO\[5\]\[3\]
*734 fifo_in\.FIFO\[5\]\[4\]
*735 fifo_in\.FIFO\[5\]\[5\]
*736 fifo_in\.FIFO\[5\]\[6\]
*737 fifo_in\.FIFO\[5\]\[7\]
*738 fifo_in\.FIFO\[5\]\[8\]
*739 fifo_in\.FIFO\[5\]\[9\]
*740 fifo_in\.FIFO\[6\]\[0\]
*741 fifo_in\.FIFO\[6\]\[10\]
*742 fifo_in\.FIFO\[6\]\[11\]
*743 fifo_in\.FIFO\[6\]\[12\]
*744 fifo_in\.FIFO\[6\]\[13\]
*745 fifo_in\.FIFO\[6\]\[14\]
*746 fifo_in\.FIFO\[6\]\[15\]
*747 fifo_in\.FIFO\[6\]\[16\]
*748 fifo_in\.FIFO\[6\]\[17\]
*749 fifo_in\.FIFO\[6\]\[18\]
*750 fifo_in\.FIFO\[6\]\[19\]
*751 fifo_in\.FIFO\[6\]\[1\]
*752 fifo_in\.FIFO\[6\]\[20\]
*753 fifo_in\.FIFO\[6\]\[21\]
*754 fifo_in\.FIFO\[6\]\[22\]
*755 fifo_in\.FIFO\[6\]\[23\]
*756 fifo_in\.FIFO\[6\]\[24\]
*757 fifo_in\.FIFO\[6\]\[25\]
*758 fifo_in\.FIFO\[6\]\[26\]
*759 fifo_in\.FIFO\[6\]\[27\]
*760 fifo_in\.FIFO\[6\]\[28\]
*761 fifo_in\.FIFO\[6\]\[29\]
*762 fifo_in\.FIFO\[6\]\[2\]
*763 fifo_in\.FIFO\[6\]\[30\]
*764 fifo_in\.FIFO\[6\]\[31\]
*765 fifo_in\.FIFO\[6\]\[3\]
*766 fifo_in\.FIFO\[6\]\[4\]
*767 fifo_in\.FIFO\[6\]\[5\]
*768 fifo_in\.FIFO\[6\]\[6\]
*769 fifo_in\.FIFO\[6\]\[7\]
*770 fifo_in\.FIFO\[6\]\[8\]
*771 fifo_in\.FIFO\[6\]\[9\]
*772 fifo_in\.FIFO\[7\]\[0\]
*773 fifo_in\.FIFO\[7\]\[10\]
*774 fifo_in\.FIFO\[7\]\[11\]
*775 fifo_in\.FIFO\[7\]\[12\]
*776 fifo_in\.FIFO\[7\]\[13\]
*777 fifo_in\.FIFO\[7\]\[14\]
*778 fifo_in\.FIFO\[7\]\[15\]
*779 fifo_in\.FIFO\[7\]\[16\]
*780 fifo_in\.FIFO\[7\]\[17\]
*781 fifo_in\.FIFO\[7\]\[18\]
*782 fifo_in\.FIFO\[7\]\[19\]
*783 fifo_in\.FIFO\[7\]\[1\]
*784 fifo_in\.FIFO\[7\]\[20\]
*785 fifo_in\.FIFO\[7\]\[21\]
*786 fifo_in\.FIFO\[7\]\[22\]
*787 fifo_in\.FIFO\[7\]\[23\]
*788 fifo_in\.FIFO\[7\]\[24\]
*789 fifo_in\.FIFO\[7\]\[25\]
*790 fifo_in\.FIFO\[7\]\[26\]
*791 fifo_in\.FIFO\[7\]\[27\]
*792 fifo_in\.FIFO\[7\]\[28\]
*793 fifo_in\.FIFO\[7\]\[29\]
*794 fifo_in\.FIFO\[7\]\[2\]
*795 fifo_in\.FIFO\[7\]\[30\]
*796 fifo_in\.FIFO\[7\]\[31\]
*797 fifo_in\.FIFO\[7\]\[3\]
*798 fifo_in\.FIFO\[7\]\[4\]
*799 fifo_in\.FIFO\[7\]\[5\]
*800 fifo_in\.FIFO\[7\]\[6\]
*801 fifo_in\.FIFO\[7\]\[7\]
*802 fifo_in\.FIFO\[7\]\[8\]
*803 fifo_in\.FIFO\[7\]\[9\]
*804 fifo_in\.count\[0\]
*805 fifo_in\.count\[1\]
*806 fifo_in\.count\[2\]
*807 fifo_in\.read_addr\[0\]
*808 fifo_in\.read_addr\[1\]
*809 fifo_in\.read_addr\[2\]
*810 fifo_in\.write_addr\[0\]
*811 fifo_in\.write_addr\[1\]
*812 fifo_in\.write_addr\[2\]
*813 net1
*814 net10
*815 net100
*816 net101
*817 net102
*818 net103
*819 net104
*820 net105
*821 net106
*822 net107
*823 net108
*824 net109
*825 net11
*826 net110
*827 net111
*828 net112
*829 net113
*830 net114
*831 net115
*832 net116
*833 net117
*834 net118
*835 net119
*836 net12
*837 net120
*838 net121
*839 net122
*840 net123
*841 net124
*842 net125
*843 net126
*844 net127
*845 net128
*846 net129
*847 net13
*848 net130
*849 net131
*850 net132
*851 net133
*852 net134
*853 net135
*854 net136
*855 net137
*856 net138
*857 net139
*858 net14
*859 net140
*860 net141
*861 net142
*862 net143
*863 net144
*864 net145
*865 net146
*866 net147
*867 net148
*868 net149
*869 net15
*870 net150
*871 net151
*872 net152
*873 net153
*874 net154
*875 net155
*876 net156
*877 net157
*878 net158
*879 net159
*880 net16
*881 net160
*882 net161
*883 net162
*884 net163
*885 net164
*886 net165
*887 net166
*888 net167
*889 net168
*890 net169
*891 net17
*892 net170
*893 net171
*894 net172
*895 net173
*896 net174
*897 net175
*898 net176
*899 net177
*900 net178
*901 net179
*902 net18
*903 net180
*904 net181
*905 net182
*906 net183
*907 net184
*908 net185
*909 net186
*910 net187
*911 net188
*912 net189
*913 net19
*914 net190
*915 net191
*916 net192
*917 net193
*918 net194
*919 net195
*920 net196
*921 net197
*922 net198
*923 net199
*924 net2
*925 net20
*926 net200
*927 net201
*928 net202
*929 net203
*930 net204
*931 net205
*932 net206
*933 net207
*934 net208
*935 net209
*936 net21
*937 net210
*938 net211
*939 net212
*940 net213
*941 net214
*942 net215
*943 net216
*944 net217
*945 net218
*946 net219
*947 net22
*948 net220
*949 net221
*950 net222
*951 net223
*952 net224
*953 net225
*954 net226
*955 net227
*956 net228
*957 net229
*958 net23
*959 net230
*960 net231
*961 net232
*962 net233
*963 net234
*964 net235
*965 net236
*966 net237
*967 net238
*968 net239
*969 net24
*970 net240
*971 net241
*972 net242
*973 net243
*974 net244
*975 net245
*976 net246
*977 net247
*978 net248
*979 net249
*980 net25
*981 net250
*982 net251
*983 net252
*984 net253
*985 net254
*986 net255
*987 net256
*988 net257
*989 net258
*990 net259
*991 net26
*992 net260
*993 net261
*994 net262
*995 net263
*996 net264
*997 net265
*998 net266
*999 net267
*1000 net268
*1001 net269
*1002 net27
*1003 net270
*1004 net271
*1005 net272
*1006 net273
*1007 net274
*1008 net275
*1009 net276
*1010 net277
*1011 net278
*1012 net279
*1013 net28
*1014 net280
*1015 net281
*1016 net282
*1017 net283
*1018 net284
*1019 net285
*1020 net286
*1021 net287
*1022 net288
*1023 net289
*1024 net29
*1025 net290
*1026 net291
*1027 net292
*1028 net293
*1029 net294
*1030 net295
*1031 net296
*1032 net297
*1033 net298
*1034 net299
*1035 net3
*1036 net30
*1037 net300
*1038 net301
*1039 net302
*1040 net303
*1041 net304
*1042 net305
*1043 net306
*1044 net307
*1045 net308
*1046 net309
*1047 net31
*1048 net310
*1049 net311
*1050 net312
*1051 net313
*1052 net314
*1053 net315
*1054 net316
*1055 net317
*1056 net318
*1057 net319
*1058 net32
*1059 net320
*1060 net321
*1061 net322
*1062 net323
*1063 net324
*1064 net325
*1065 net326
*1066 net327
*1067 net328
*1068 net329
*1069 net33
*1070 net330
*1071 net331
*1072 net332
*1073 net333
*1074 net334
*1075 net335
*1076 net336
*1077 net337
*1078 net338
*1079 net339
*1080 net34
*1081 net340
*1082 net341
*1083 net342
*1084 net343
*1085 net344
*1086 net345
*1087 net346
*1088 net347
*1089 net348
*1090 net349
*1091 net35
*1092 net350
*1093 net351
*1094 net352
*1095 net353
*1096 net354
*1097 net355
*1098 net356
*1099 net357
*1100 net358
*1101 net359
*1102 net36
*1103 net360
*1104 net361
*1105 net362
*1106 net363
*1107 net364
*1108 net365
*1109 net366
*1110 net367
*1111 net368
*1112 net369
*1113 net37
*1114 net370
*1115 net371
*1116 net372
*1117 net373
*1118 net374
*1119 net375
*1120 net376
*1121 net377
*1122 net378
*1123 net379
*1124 net38
*1125 net380
*1126 net381
*1127 net382
*1128 net383
*1129 net384
*1130 net385
*1131 net386
*1132 net387
*1133 net388
*1134 net389
*1135 net39
*1136 net390
*1137 net391
*1138 net392
*1139 net393
*1140 net394
*1141 net395
*1142 net396
*1143 net397
*1144 net398
*1145 net399
*1146 net4
*1147 net40
*1148 net400
*1149 net401
*1150 net402
*1151 net403
*1152 net404
*1153 net405
*1154 net406
*1155 net407
*1156 net408
*1157 net409
*1158 net41
*1159 net410
*1160 net411
*1161 net412
*1162 net413
*1163 net414
*1164 net415
*1165 net416
*1166 net417
*1167 net418
*1168 net419
*1169 net42
*1170 net420
*1171 net421
*1172 net422
*1173 net423
*1174 net424
*1175 net425
*1176 net426
*1177 net427
*1178 net428
*1179 net429
*1180 net43
*1181 net430
*1182 net431
*1183 net432
*1184 net433
*1185 net434
*1186 net435
*1187 net436
*1188 net437
*1189 net438
*1190 net439
*1191 net44
*1192 net440
*1193 net441
*1194 net442
*1195 net443
*1196 net444
*1197 net445
*1198 net446
*1199 net447
*1200 net448
*1201 net449
*1202 net45
*1203 net450
*1204 net451
*1205 net452
*1206 net453
*1207 net454
*1208 net455
*1209 net456
*1210 net457
*1211 net458
*1212 net459
*1213 net46
*1214 net460
*1215 net461
*1216 net462
*1217 net463
*1218 net464
*1219 net465
*1220 net466
*1221 net467
*1222 net468
*1223 net469
*1224 net47
*1225 net470
*1226 net471
*1227 net472
*1228 net473
*1229 net474
*1230 net475
*1231 net476
*1232 net477
*1233 net478
*1234 net479
*1235 net48
*1236 net480
*1237 net481
*1238 net482
*1239 net483
*1240 net484
*1241 net485
*1242 net486
*1243 net487
*1244 net488
*1245 net489
*1246 net49
*1247 net490
*1248 net491
*1249 net492
*1250 net493
*1251 net494
*1252 net495
*1253 net496
*1254 net497
*1255 net498
*1256 net499
*1257 net5
*1258 net50
*1259 net500
*1260 net501
*1261 net502
*1262 net503
*1263 net504
*1264 net505
*1265 net506
*1266 net507
*1267 net508
*1268 net509
*1269 net51
*1270 net510
*1271 net511
*1272 net512
*1273 net513
*1274 net514
*1275 net515
*1276 net516
*1277 net517
*1278 net518
*1279 net519
*1280 net52
*1281 net520
*1282 net521
*1283 net522
*1284 net523
*1285 net524
*1286 net525
*1287 net526
*1288 net527
*1289 net528
*1290 net529
*1291 net53
*1292 net530
*1293 net531
*1294 net532
*1295 net533
*1296 net534
*1297 net535
*1298 net536
*1299 net537
*1300 net538
*1301 net539
*1302 net54
*1303 net540
*1304 net541
*1305 net542
*1306 net543
*1307 net544
*1308 net545
*1309 net546
*1310 net547
*1311 net548
*1312 net549
*1313 net55
*1314 net550
*1315 net551
*1316 net552
*1317 net553
*1318 net554
*1319 net555
*1320 net556
*1321 net557
*1322 net558
*1323 net559
*1324 net56
*1325 net560
*1326 net561
*1327 net562
*1328 net563
*1329 net564
*1330 net565
*1331 net566
*1332 net567
*1333 net568
*1334 net569
*1335 net57
*1336 net570
*1337 net571
*1338 net572
*1339 net573
*1340 net574
*1341 net575
*1342 net576
*1343 net577
*1344 net578
*1345 net579
*1346 net58
*1347 net580
*1348 net581
*1349 net582
*1350 net583
*1351 net584
*1352 net585
*1353 net586
*1354 net587
*1355 net588
*1356 net589
*1357 net59
*1358 net590
*1359 net591
*1360 net592
*1361 net593
*1362 net594
*1363 net595
*1364 net596
*1365 net597
*1366 net598
*1367 net599
*1368 net6
*1369 net60
*1370 net600
*1371 net601
*1372 net602
*1373 net603
*1374 net604
*1375 net605
*1376 net606
*1377 net607
*1378 net608
*1379 net609
*1380 net61
*1381 net610
*1382 net611
*1383 net612
*1384 net613
*1385 net614
*1386 net615
*1387 net616
*1388 net617
*1389 net618
*1390 net619
*1391 net62
*1392 net620
*1393 net621
*1394 net622
*1395 net623
*1396 net624
*1397 net625
*1398 net626
*1399 net627
*1400 net628
*1401 net629
*1402 net63
*1403 net630
*1404 net631
*1405 net632
*1406 net633
*1407 net634
*1408 net635
*1409 net636
*1410 net637
*1411 net638
*1412 net639
*1413 net64
*1414 net640
*1415 net641
*1416 net642
*1417 net643
*1418 net644
*1419 net645
*1420 net646
*1421 net647
*1422 net648
*1423 net649
*1424 net65
*1425 net650
*1426 net651
*1427 net652
*1428 net653
*1429 net654
*1430 net655
*1431 net656
*1432 net657
*1433 net658
*1434 net659
*1435 net66
*1436 net660
*1437 net661
*1438 net662
*1439 net663
*1440 net664
*1441 net665
*1442 net666
*1443 net667
*1444 net668
*1445 net669
*1446 net67
*1447 net670
*1448 net671
*1449 net672
*1450 net673
*1451 net674
*1452 net675
*1453 net676
*1454 net677
*1455 net678
*1456 net679
*1457 net68
*1458 net680
*1459 net681
*1460 net682
*1461 net683
*1462 net684
*1463 net685
*1464 net686
*1465 net687
*1466 net688
*1467 net689
*1468 net69
*1469 net690
*1470 net691
*1471 net692
*1472 net693
*1473 net694
*1474 net695
*1475 net696
*1476 net697
*1477 net698
*1478 net699
*1479 net7
*1480 net70
*1481 net700
*1482 net701
*1483 net702
*1484 net703
*1485 net704
*1486 net705
*1487 net706
*1488 net707
*1489 net708
*1490 net709
*1491 net71
*1492 net710
*1493 net711
*1494 net712
*1495 net713
*1496 net714
*1497 net715
*1498 net716
*1499 net717
*1500 net718
*1501 net719
*1502 net72
*1503 net720
*1504 net721
*1505 net722
*1506 net723
*1507 net724
*1508 net725
*1509 net726
*1510 net73
*1511 net74
*1512 net75
*1513 net76
*1514 net77
*1515 net78
*1516 net79
*1517 net8
*1518 net80
*1519 net81
*1520 net82
*1521 net83
*1522 net84
*1523 net85
*1524 net86
*1525 net87
*1526 net88
*1527 net89
*1528 net9
*1529 net90
*1530 net91
*1531 net92
*1532 net93
*1533 net94
*1534 net95
*1535 net96
*1536 net97
*1537 net98
*1538 net99
*1539 ANTENNA__0422__B
*1540 ANTENNA__0424__A
*1541 ANTENNA__0425__S0
*1542 ANTENNA__0425__S1
*1543 ANTENNA__0426__S0
*1544 ANTENNA__0426__S1
*1545 ANTENNA__0427__S
*1546 ANTENNA__0428__B
*1547 ANTENNA__0429__S0
*1548 ANTENNA__0429__S1
*1549 ANTENNA__0430__S0
*1550 ANTENNA__0430__S1
*1551 ANTENNA__0431__S
*1552 ANTENNA__0433__S0
*1553 ANTENNA__0433__S1
*1554 ANTENNA__0434__S0
*1555 ANTENNA__0434__S1
*1556 ANTENNA__0435__S
*1557 ANTENNA__0437__S0
*1558 ANTENNA__0437__S1
*1559 ANTENNA__0438__S0
*1560 ANTENNA__0438__S1
*1561 ANTENNA__0439__S
*1562 ANTENNA__0441__S0
*1563 ANTENNA__0441__S1
*1564 ANTENNA__0442__S0
*1565 ANTENNA__0442__S1
*1566 ANTENNA__0443__S
*1567 ANTENNA__0444__B
*1568 ANTENNA__0445__S0
*1569 ANTENNA__0445__S1
*1570 ANTENNA__0446__S0
*1571 ANTENNA__0446__S1
*1572 ANTENNA__0447__S
*1573 ANTENNA__0449__S0
*1574 ANTENNA__0449__S1
*1575 ANTENNA__0450__S0
*1576 ANTENNA__0450__S1
*1577 ANTENNA__0451__S
*1578 ANTENNA__0453__S0
*1579 ANTENNA__0453__S1
*1580 ANTENNA__0454__S0
*1581 ANTENNA__0454__S1
*1582 ANTENNA__0455__S
*1583 ANTENNA__0457__S0
*1584 ANTENNA__0457__S1
*1585 ANTENNA__0458__S0
*1586 ANTENNA__0458__S1
*1587 ANTENNA__0459__S
*1588 ANTENNA__0461__S0
*1589 ANTENNA__0461__S1
*1590 ANTENNA__0462__S0
*1591 ANTENNA__0462__S1
*1592 ANTENNA__0463__S
*1593 ANTENNA__0464__B
*1594 ANTENNA__0465__S0
*1595 ANTENNA__0465__S1
*1596 ANTENNA__0466__S0
*1597 ANTENNA__0466__S1
*1598 ANTENNA__0467__S
*1599 ANTENNA__0469__S0
*1600 ANTENNA__0469__S1
*1601 ANTENNA__0470__S0
*1602 ANTENNA__0470__S1
*1603 ANTENNA__0471__S
*1604 ANTENNA__0473__S0
*1605 ANTENNA__0473__S1
*1606 ANTENNA__0474__S0
*1607 ANTENNA__0474__S1
*1608 ANTENNA__0475__S
*1609 ANTENNA__0477__S0
*1610 ANTENNA__0477__S1
*1611 ANTENNA__0478__S0
*1612 ANTENNA__0478__S1
*1613 ANTENNA__0479__S
*1614 ANTENNA__0481__S0
*1615 ANTENNA__0481__S1
*1616 ANTENNA__0482__S0
*1617 ANTENNA__0482__S1
*1618 ANTENNA__0483__S
*1619 ANTENNA__0484__B
*1620 ANTENNA__0485__S0
*1621 ANTENNA__0485__S1
*1622 ANTENNA__0486__S0
*1623 ANTENNA__0486__S1
*1624 ANTENNA__0487__S
*1625 ANTENNA__0489__S0
*1626 ANTENNA__0489__S1
*1627 ANTENNA__0490__S0
*1628 ANTENNA__0490__S1
*1629 ANTENNA__0491__S
*1630 ANTENNA__0493__S0
*1631 ANTENNA__0493__S1
*1632 ANTENNA__0494__S0
*1633 ANTENNA__0494__S1
*1634 ANTENNA__0495__S
*1635 ANTENNA__0497__S0
*1636 ANTENNA__0497__S1
*1637 ANTENNA__0498__S0
*1638 ANTENNA__0498__S1
*1639 ANTENNA__0499__S
*1640 ANTENNA__0501__S0
*1641 ANTENNA__0501__S1
*1642 ANTENNA__0502__S0
*1643 ANTENNA__0502__S1
*1644 ANTENNA__0503__S
*1645 ANTENNA__0505__S0
*1646 ANTENNA__0505__S1
*1647 ANTENNA__0506__S0
*1648 ANTENNA__0506__S1
*1649 ANTENNA__0507__S
*1650 ANTENNA__0509__S0
*1651 ANTENNA__0509__S1
*1652 ANTENNA__0510__S0
*1653 ANTENNA__0510__S1
*1654 ANTENNA__0511__S
*1655 ANTENNA__0513__S0
*1656 ANTENNA__0513__S1
*1657 ANTENNA__0514__S0
*1658 ANTENNA__0514__S1
*1659 ANTENNA__0515__S
*1660 ANTENNA__0517__S0
*1661 ANTENNA__0517__S1
*1662 ANTENNA__0518__S0
*1663 ANTENNA__0518__S1
*1664 ANTENNA__0519__S
*1665 ANTENNA__0521__S0
*1666 ANTENNA__0521__S1
*1667 ANTENNA__0522__S0
*1668 ANTENNA__0522__S1
*1669 ANTENNA__0523__S
*1670 ANTENNA__0525__S0
*1671 ANTENNA__0525__S1
*1672 ANTENNA__0526__S0
*1673 ANTENNA__0526__S1
*1674 ANTENNA__0527__S
*1675 ANTENNA__0528__B
*1676 ANTENNA__0529__S0
*1677 ANTENNA__0529__S1
*1678 ANTENNA__0530__S0
*1679 ANTENNA__0530__S1
*1680 ANTENNA__0531__S
*1681 ANTENNA__0533__S0
*1682 ANTENNA__0533__S1
*1683 ANTENNA__0534__S0
*1684 ANTENNA__0534__S1
*1685 ANTENNA__0535__S
*1686 ANTENNA__0537__S0
*1687 ANTENNA__0537__S1
*1688 ANTENNA__0538__S0
*1689 ANTENNA__0538__S1
*1690 ANTENNA__0539__S
*1691 ANTENNA__0540__B
*1692 ANTENNA__0541__S0
*1693 ANTENNA__0541__S1
*1694 ANTENNA__0542__S0
*1695 ANTENNA__0542__S1
*1696 ANTENNA__0543__S
*1697 ANTENNA__0545__S0
*1698 ANTENNA__0545__S1
*1699 ANTENNA__0546__S0
*1700 ANTENNA__0546__S1
*1701 ANTENNA__0547__S
*1702 ANTENNA__0549__S0
*1703 ANTENNA__0549__S1
*1704 ANTENNA__0550__S0
*1705 ANTENNA__0550__S1
*1706 ANTENNA__0551__S
*1707 ANTENNA__0555__S
*1708 ANTENNA__0556__S
*1709 ANTENNA__0557__S
*1710 ANTENNA__0558__S
*1711 ANTENNA__0559__S
*1712 ANTENNA__0560__S
*1713 ANTENNA__0561__S
*1714 ANTENNA__0562__S
*1715 ANTENNA__0563__S
*1716 ANTENNA__0564__S
*1717 ANTENNA__0565__S
*1718 ANTENNA__0566__S
*1719 ANTENNA__0567__S
*1720 ANTENNA__0568__S
*1721 ANTENNA__0569__S
*1722 ANTENNA__0570__S
*1723 ANTENNA__0571__S
*1724 ANTENNA__0572__S
*1725 ANTENNA__0573__S
*1726 ANTENNA__0574__S
*1727 ANTENNA__0575__S
*1728 ANTENNA__0576__S
*1729 ANTENNA__0577__S
*1730 ANTENNA__0578__S
*1731 ANTENNA__0579__S
*1732 ANTENNA__0580__S
*1733 ANTENNA__0583__S
*1734 ANTENNA__0584__S
*1735 ANTENNA__0585__S
*1736 ANTENNA__0586__S
*1737 ANTENNA__0587__S
*1738 ANTENNA__0588__S
*1739 ANTENNA__0589__S
*1740 ANTENNA__0590__S
*1741 ANTENNA__0591__S
*1742 ANTENNA__0592__S
*1743 ANTENNA__0593__S
*1744 ANTENNA__0594__S
*1745 ANTENNA__0595__S
*1746 ANTENNA__0596__S
*1747 ANTENNA__0597__S
*1748 ANTENNA__0598__S
*1749 ANTENNA__0599__S
*1750 ANTENNA__0600__S
*1751 ANTENNA__0601__S
*1752 ANTENNA__0602__S
*1753 ANTENNA__0603__S