*SPEF "ieee 1481-1999"
*DESIGN "wishbone_nn"
*DATE "11:11:11 Fri 11 11, 1111"
*VENDOR "OpenRCX"
*PROGRAM "Parallel Extraction"
*VERSION "1.0"
*DESIGN_FLOW "NAME_SCOPE LOCAL" "PIN_CAP NONE"
*DIVIDER /
*DELIMITER :
*BUS_DELIMITER []
*T_UNIT 1 NS
*C_UNIT 1 PF
*R_UNIT 1 OHM
*L_UNIT 1 HENRY

*NAME_MAP
*1 nn_ids[0]
*2 nn_ids[1]
*3 nn_ids[2]
*4 nn_ids[3]
*7 wb_clk_i
*8 wb_rst_i
*9 wbs_ack_o
*10 wbs_adr_i[0]
*11 wbs_adr_i[10]
*12 wbs_adr_i[11]
*13 wbs_adr_i[12]
*14 wbs_adr_i[13]
*15 wbs_adr_i[14]
*16 wbs_adr_i[15]
*17 wbs_adr_i[16]
*18 wbs_adr_i[17]
*19 wbs_adr_i[18]
*20 wbs_adr_i[19]
*21 wbs_adr_i[1]
*22 wbs_adr_i[20]
*23 wbs_adr_i[21]
*24 wbs_adr_i[22]
*25 wbs_adr_i[23]
*26 wbs_adr_i[24]
*27 wbs_adr_i[25]
*28 wbs_adr_i[26]
*29 wbs_adr_i[27]
*30 wbs_adr_i[28]
*31 wbs_adr_i[29]
*32 wbs_adr_i[2]
*33 wbs_adr_i[30]
*34 wbs_adr_i[31]
*35 wbs_adr_i[3]
*36 wbs_adr_i[4]
*37 wbs_adr_i[5]
*38 wbs_adr_i[6]
*39 wbs_adr_i[7]
*40 wbs_adr_i[8]
*41 wbs_adr_i[9]
*42 wbs_cyc_i
*43 wbs_dat_i[0]
*44 wbs_dat_i[10]
*45 wbs_dat_i[11]
*46 wbs_dat_i[12]
*47 wbs_dat_i[13]
*48 wbs_dat_i[14]
*49 wbs_dat_i[15]
*50 wbs_dat_i[16]
*51 wbs_dat_i[17]
*52 wbs_dat_i[18]
*53 wbs_dat_i[19]
*54 wbs_dat_i[1]
*55 wbs_dat_i[20]
*56 wbs_dat_i[21]
*57 wbs_dat_i[22]
*58 wbs_dat_i[23]
*59 wbs_dat_i[24]
*60 wbs_dat_i[25]
*61 wbs_dat_i[26]
*62 wbs_dat_i[27]
*63 wbs_dat_i[28]
*64 wbs_dat_i[29]
*65 wbs_dat_i[2]
*66 wbs_dat_i[30]
*67 wbs_dat_i[31]
*68 wbs_dat_i[3]
*69 wbs_dat_i[4]
*70 wbs_dat_i[5]
*71 wbs_dat_i[6]
*72 wbs_dat_i[7]
*73 wbs_dat_i[8]
*74 wbs_dat_i[9]
*75 wbs_dat_o[0]
*76 net52
*77 net53
*78 net54
*79 net55
*80 net56
*81 net57
*82 net58
*83 net59
*84 net60
*85 net61
*86 wbs_dat_o[1]
*87 net62
*88 net63
*89 net64
*90 net65
*91 net66
*92 net67
*93 net68
*94 net69
*95 net70
*96 net71
*97 wbs_dat_o[2]
*98 net72
*99 net73
*100 wbs_dat_o[3]
*101 net47
*102 net48
*103 net49
*104 net50
*105 net51
*106 net75
*107 wbs_sel_i[0]
*108 wbs_sel_i[1]
*109 wbs_sel_i[2]
*110 wbs_sel_i[3]
*111 wbs_stb_i
*112 wbs_we_i
*113 _000_
*114 _001_
*115 _002_
*116 _003_
*117 _004_
*118 _005_
*119 _006_
*120 _007_
*121 _008_
*122 _009_
*123 _010_
*124 _011_
*125 _012_
*126 _013_
*127 _014_
*128 _015_
*129 _016_
*130 _017_
*131 _018_
*132 _019_
*133 _020_
*134 _021_
*135 _022_
*136 _023_
*137 _024_
*138 _025_
*139 _026_
*140 _027_
*141 _028_
*142 _029_
*143 _030_
*144 _031_
*145 _032_
*146 _033_
*147 _034_
*148 _035_
*149 _036_
*150 _037_
*151 _038_
*152 _039_
*153 _040_
*154 _041_
*155 _042_
*156 _043_
*157 _044_
*158 _045_
*159 _046_
*160 _047_
*161 _048_
*162 _049_
*163 _050_
*164 _051_
*165 _052_
*166 _053_
*167 _054_
*168 _055_
*169 _056_
*170 _057_
*171 _058_
*172 _059_
*173 _060_
*174 _061_
*175 _062_
*176 _063_
*177 _064_
*178 _065_
*179 _066_
*180 _067_
*181 _068_
*182 _069_
*183 _070_
*184 _071_
*185 _072_
*186 _073_
*187 _074_
*188 _075_
*189 _076_
*190 _077_
*191 _078_
*192 _079_
*193 _080_
*194 _081_
*195 _082_
*196 _083_
*197 _084_
*198 _085_
*199 _086_
*200 _087_
*201 _088_
*202 _089_
*203 _090_
*204 _091_
*205 _092_
*206 _093_
*207 _094_
*208 _095_
*209 _096_
*210 _097_
*211 _098_
*212 _099_
*213 _100_
*214 _101_
*215 _102_
*216 _103_
*217 _104_
*218 _105_
*219 _106_
*220 _107_
*221 _108_
*222 _109_
*223 _110_
*224 _111_
*225 _112_
*226 _113_
*227 _114_
*228 _115_
*229 _116_
*230 _117_
*231 _118_
*232 _119_
*233 _120_
*234 _121_
*235 _122_
*236 _123_
*237 clknet_0_wb_clk_i
*238 clknet_2_0__leaf_wb_clk_i
*239 clknet_2_1__leaf_wb_clk_i
*240 clknet_2_2__leaf_wb_clk_i
*241 clknet_2_3__leaf_wb_clk_i
*242 fifo_out\.FIFO\[0\]\[0\]
*243 fifo_out\.FIFO\[0\]\[1\]
*244 fifo_out\.FIFO\[0\]\[2\]
*245 fifo_out\.FIFO\[0\]\[3\]
*246 fifo_out\.FIFO\[1\]\[0\]
*247 fifo_out\.FIFO\[1\]\[1\]
*248 fifo_out\.FIFO\[1\]\[2\]
*249 fifo_out\.FIFO\[1\]\[3\]
*250 fifo_out\.FIFO\[2\]\[0\]
*251 fifo_out\.FIFO\[2\]\[1\]
*252 fifo_out\.FIFO\[2\]\[2\]
*253 fifo_out\.FIFO\[2\]\[3\]
*254 fifo_out\.FIFO\[3\]\[0\]
*255 fifo_out\.FIFO\[3\]\[1\]
*256 fifo_out\.FIFO\[3\]\[2\]
*257 fifo_out\.FIFO\[3\]\[3\]
*258 fifo_out\.FIFO\[4\]\[0\]
*259 fifo_out\.FIFO\[4\]\[1\]
*260 fifo_out\.FIFO\[4\]\[2\]
*261 fifo_out\.FIFO\[4\]\[3\]
*262 fifo_out\.FIFO\[5\]\[0\]
*263 fifo_out\.FIFO\[5\]\[1\]
*264 fifo_out\.FIFO\[5\]\[2\]
*265 fifo_out\.FIFO\[5\]\[3\]
*266 fifo_out\.FIFO\[6\]\[0\]
*267 fifo_out\.FIFO\[6\]\[1\]
*268 fifo_out\.FIFO\[6\]\[2\]
*269 fifo_out\.FIFO\[6\]\[3\]
*270 fifo_out\.FIFO\[7\]\[0\]
*271 fifo_out\.FIFO\[7\]\[1\]
*272 fifo_out\.FIFO\[7\]\[2\]
*273 fifo_out\.FIFO\[7\]\[3\]
*274 fifo_out\.count\[0\]
*275 fifo_out\.count\[1\]
*276 fifo_out\.count\[2\]
*277 fifo_out\.count\[3\]
*278 fifo_out\.read_addr\[0\]
*279 fifo_out\.read_addr\[1\]
*280 fifo_out\.read_addr\[2\]
*281 fifo_out\.read_addr\[3\]
*282 fifo_out\.write_addr\[0\]
*283 fifo_out\.write_addr\[1\]
*284 fifo_out\.write_addr\[2\]
*285 fifo_out\.write_addr\[3\]
*286 net1
*287 net10
*288 net100
*289 net101
*290 net102
*291 net103
*292 net104
*293 net105
*294 net106
*295 net107
*296 net108
*297 net109
*298 net11
*299 net110
*300 net111
*301 net112
*302 net113
*303 net114
*304 net115
*305 net116
*306 net117
*307 net118
*308 net119
*309 net12
*310 net120
*311 net121
*312 net122
*313 net123
*314 net124
*315 net125
*316 net126
*317 net127
*318 net128
*319 net129
*320 net13
*321 net130
*322 net131
*323 net132
*324 net133
*325 net134
*326 net135
*327 net136
*328 net137
*329 net138
*330 net139
*331 net14
*332 net140
*333 net141
*334 net142
*335 net143
*336 net144
*337 net145
*338 net146
*339 net147
*340 net148
*341 net149
*342 net15
*343 net150
*344 net151
*345 net152
*346 net153
*347 net154
*348 net155
*349 net156
*350 net157
*351 net158
*352 net159
*353 net16
*354 net160
*355 net161
*356 net162
*357 net163
*358 net164
*359 net165
*360 net166
*361 net167
*362 net168
*363 net169
*364 net17
*365 net170
*366 net171
*367 net172
*368 net173
*369 net174
*370 net175
*371 net176
*372 net177
*373 net178
*374 net179
*375 net18
*376 net180
*377 net181
*378 net182
*379 net183
*380 net19
*381 net2
*382 net20
*383 net21
*384 net22
*385 net23
*386 net24
*387 net25
*388 net26
*389 net27
*390 net28
*391 net29
*392 net3
*393 net30
*394 net31
*395 net32
*396 net33
*397 net34
*398 net35
*399 net36
*400 net37
*401 net38
*402 net39
*403 net4
*404 net40
*405 net41
*406 net42
*407 net43
*408 net44
*409 net45
*410 net46
*411 net5
*412 net6
*413 net7
*414 net74
*415 net76
*416 net77
*417 net78
*418 net79
*419 net8
*420 net80
*421 net81
*422 net82
*423 net83
*424 net84
*425 net85
*426 net86
*427 net87
*428 net88
*429 net89
*430 net9
*431 net90
*432 net91
*433 net92
*434 net93
*435 net94
*436 net95
*437 net96
*438 net97
*439 net98
*440 net99
*441 ANTENNA_1
*442 ANTENNA_10
*443 ANTENNA_11
*444 ANTENNA_12
*445 ANTENNA_13
*446 ANTENNA_14
*447 ANTENNA_15
*448 ANTENNA_16
*449 ANTENNA_2
*450 ANTENNA_3
*451 ANTENNA_4
*452 ANTENNA_5
*453 ANTENNA_6
*454 ANTENNA_7
*455 ANTENNA_8
*456 ANTENNA_9
*457 ANTENNA__140__A
*458 ANTENNA__143__S0
*459 ANTENNA__144__S0
*460 ANTENNA__147__S0
*461 ANTENNA__148__S0
*462 ANTENNA__151__S0
*463 ANTENNA__152__S0
*464 ANTENNA__155__S0
*465 ANTENNA__156__S0
*466 ANTENNA__166__A1
*467 ANTENNA__167__A1
*468 ANTENNA__168__A1
*469 ANTENNA__169__A1
*470 ANTENNA__172__A0
*471 ANTENNA__173__A0
*472 ANTENNA__174__A0
*473 ANTENNA__175__A0
*474 ANTENNA__178__A1
*475 ANTENNA__179__A1
*476 ANTENNA__180__A1
*477 ANTENNA__181__A1
*478 ANTENNA__183__A0
*479 ANTENNA__184__A0
*480 ANTENNA__185__A0
*481 ANTENNA__186__A0
*482 ANTENNA__189__D
*483 ANTENNA__191__A1
*484 ANTENNA__192__A1
*485 ANTENNA__193__A1
*486 ANTENNA__194__A2
*487 ANTENNA__195__A2
*488 ANTENNA__196__C
*489 ANTENNA__234__A1
*490 ANTENNA__235__A1
*491 ANTENNA__236__A1
*492 ANTENNA__237__A1
*493 ANTENNA__239__A0
*494 ANTENNA__240__A0
*495 ANTENNA__241__A0
*496 ANTENNA__242__A0
*497 ANTENNA__244__A1
*498 ANTENNA__245__A1
*499 ANTENNA__246__A1
*500 ANTENNA__247__A1
*501 ANTENNA__249__A0
*502 ANTENNA__250__A0
*503 ANTENNA__251__A0
*504 ANTENNA__252__A0
*505 ANTENNA_hold17_A
*506 FILLER_0_0_107
*507 FILLER_0_0_111
*508 FILLER_0_0_113
*509 FILLER_0_0_119
*510 FILLER_0_0_123
*511 FILLER_0_0_127
*512 FILLER_0_0_131
*513 FILLER_0_0_135
*514 FILLER_0_0_139
*515 FILLER_0_0_147
*516 FILLER_0_0_164
*517 FILLER_0_0_175
*518 FILLER_0_0_179
*519 FILLER_0_0_186
*520 FILLER_0_0_191
*521 FILLER_0_0_195
*522 FILLER_0_0_197
*523 FILLER_0_0_215
*524 FILLER_0_0_219
*525 FILLER_0_0_223
*526 FILLER_0_0_231
*527 FILLER_0_0_235
*528 FILLER_0_0_239
*529 FILLER_0_0_243
*530 FILLER_0_0_247
*531 FILLER_0_0_251
*532 FILLER_0_0_256
*533 FILLER_0_0_263
*534 FILLER_0_0_267
*535 FILLER_0_0_271
*536 FILLER_0_0_275
*537 FILLER_0_0_279
*538 FILLER_0_0_281
*539 FILLER_0_0_287
*540 FILLER_0_0_291
*541 FILLER_0_0_295
*542 FILLER_0_0_299
*543 FILLER_0_0_3
*544 FILLER_0_0_318
*545 FILLER_0_0_323
*546 FILLER_0_0_327
*547 FILLER_0_0_331
*548 FILLER_0_0_335
*549 FILLER_0_0_340
*550 FILLER_0_0_347
*551 FILLER_0_0_351
*552 FILLER_0_0_355
*553 FILLER_0_0_359
*554 FILLER_0_0_363
*555 FILLER_0_0_365
*556 FILLER_0_0_371
*557 FILLER_0_0_375
*558 FILLER_0_0_379
*559 FILLER_0_0_383
*560 FILLER_0_0_387
*561 FILLER_0_0_391
*562 FILLER_0_0_399
*563 FILLER_0_0_76
*564 FILLER_0_10_125
*565 FILLER_0_10_137
*566 FILLER_0_10_141
*567 FILLER_0_10_15
*568 FILLER_0_10_163
*569 FILLER_0_10_171
*570 FILLER_0_10_181
*571 FILLER_0_10_190
*572 FILLER_0_10_194
*573 FILLER_0_10_197
*574 FILLER_0_10_203
*575 FILLER_0_10_228
*576 FILLER_0_10_24
*577 FILLER_0_10_240
*578 FILLER_0_10_253
*579 FILLER_0_10_265
*580 FILLER_0_10_277
*581 FILLER_0_10_289
*582 FILLER_0_10_3
*583 FILLER_0_10_301
*584 FILLER_0_10_307
*585 FILLER_0_10_309
*586 FILLER_0_10_321
*587 FILLER_0_10_33
*588 FILLER_0_10_333
*589 FILLER_0_10_345
*590 FILLER_0_10_357
*591 FILLER_0_10_363
*592 FILLER_0_10_365
*593 FILLER_0_10_37
*594 FILLER_0_10_377
*595 FILLER_0_10_389
*596 FILLER_0_10_401
*597 FILLER_0_10_46
*598 FILLER_0_10_50
*599 FILLER_0_10_62
*600 FILLER_0_10_85
*601 FILLER_0_11_103
*602 FILLER_0_11_111
*603 FILLER_0_11_129
*604 FILLER_0_11_140
*605 FILLER_0_11_15
*606 FILLER_0_11_161
*607 FILLER_0_11_165
*608 FILLER_0_11_177
*609 FILLER_0_11_181
*610 FILLER_0_11_193
*611 FILLER_0_11_207
*612 FILLER_0_11_216
*613 FILLER_0_11_225
*614 FILLER_0_11_237
*615 FILLER_0_11_249
*616 FILLER_0_11_261
*617 FILLER_0_11_273
*618 FILLER_0_11_279
*619 FILLER_0_11_281
*620 FILLER_0_11_293
*621 FILLER_0_11_3
*622 FILLER_0_11_305
*623 FILLER_0_11_317
*624 FILLER_0_11_329
*625 FILLER_0_11_335
*626 FILLER_0_11_337
*627 FILLER_0_11_349
*628 FILLER_0_11_361
*629 FILLER_0_11_373
*630 FILLER_0_11_385
*631 FILLER_0_11_391
*632 FILLER_0_11_393
*633 FILLER_0_11_405
*634 FILLER_0_11_52
*635 FILLER_0_11_57
*636 FILLER_0_11_69
*637 FILLER_0_11_91
*638 FILLER_0_12_110
*639 FILLER_0_12_122
*640 FILLER_0_12_126
*641 FILLER_0_12_136
*642 FILLER_0_12_141
*643 FILLER_0_12_147
*644 FILLER_0_12_15
*645 FILLER_0_12_164
*646 FILLER_0_12_183
*647 FILLER_0_12_187
*648 FILLER_0_12_195
*649 FILLER_0_12_213
*650 FILLER_0_12_225
*651 FILLER_0_12_237
*652 FILLER_0_12_249
*653 FILLER_0_12_253
*654 FILLER_0_12_265
*655 FILLER_0_12_27
*656 FILLER_0_12_277
*657 FILLER_0_12_289
*658 FILLER_0_12_3
*659 FILLER_0_12_301
*660 FILLER_0_12_307
*661 FILLER_0_12_309
*662 FILLER_0_12_321
*663 FILLER_0_12_333
*664 FILLER_0_12_345
*665 FILLER_0_12_357
*666 FILLER_0_12_363
*667 FILLER_0_12_365
*668 FILLER_0_12_377
*669 FILLER_0_12_389
*670 FILLER_0_12_401
*671 FILLER_0_12_56
*672 FILLER_0_12_60
*673 FILLER_0_12_72
*674 FILLER_0_12_94
*675 FILLER_0_12_98
*676 FILLER_0_13_111
*677 FILLER_0_13_149
*678 FILLER_0_13_15
*679 FILLER_0_13_166
*680 FILLER_0_13_169
*681 FILLER_0_13_225
*682 FILLER_0_13_237
*683 FILLER_0_13_249
*684 FILLER_0_13_261
*685 FILLER_0_13_273
*686 FILLER_0_13_279
*687 FILLER_0_13_281
*688 FILLER_0_13_293
*689 FILLER_0_13_3
*690 FILLER_0_13_305
*691 FILLER_0_13_317
*692 FILLER_0_13_329
*693 FILLER_0_13_335
*694 FILLER_0_13_337
*695 FILLER_0_13_349
*696 FILLER_0_13_35
*697 FILLER_0_13_361
*698 FILLER_0_13_373
*699 FILLER_0_13_385
*700 FILLER_0_13_39
*701 FILLER_0_13_391
*702 FILLER_0_13_393
*703 FILLER_0_13_405
*704 FILLER_0_14_110
*705 FILLER_0_14_121
*706 FILLER_0_14_125
*707 FILLER_0_14_137
*708 FILLER_0_14_15
*709 FILLER_0_14_157
*710 FILLER_0_14_168
*711 FILLER_0_14_178
*712 FILLER_0_14_187
*713 FILLER_0_14_191
*714 FILLER_0_14_195
*715 FILLER_0_14_206
*716 FILLER_0_14_210
*717 FILLER_0_14_228
*718 FILLER_0_14_240
*719 FILLER_0_14_253
*720 FILLER_0_14_265
*721 FILLER_0_14_27
*722 FILLER_0_14_277
*723 FILLER_0_14_289
*724 FILLER_0_14_29
*725 FILLER_0_14_3
*726 FILLER_0_14_301
*727 FILLER_0_14_307
*728 FILLER_0_14_309
*729 FILLER_0_14_321
*730 FILLER_0_14_333
*731 FILLER_0_14_345
*732 FILLER_0_14_357
*733 FILLER_0_14_363
*734 FILLER_0_14_365
*735 FILLER_0_14_377
*736 FILLER_0_14_389
*737 FILLER_0_14_401
*738 FILLER_0_14_44
*739 FILLER_0_14_73
*740 FILLER_0_14_81
*741 FILLER_0_14_85
*742 FILLER_0_14_98
*743 FILLER_0_15_122
*744 FILLER_0_15_126
*745 FILLER_0_15_15
*746 FILLER_0_15_165
*747 FILLER_0_15_177
*748 FILLER_0_15_195
*749 FILLER_0_15_207
*750 FILLER_0_15_219
*751 FILLER_0_15_223
*752 FILLER_0_15_225
*753 FILLER_0_15_237
*754 FILLER_0_15_249
*755 FILLER_0_15_261
*756 FILLER_0_15_273
*757 FILLER_0_15_279
*758 FILLER_0_15_281
*759 FILLER_0_15_293
*760 FILLER_0_15_3
*761 FILLER_0_15_305
*762 FILLER_0_15_317
*763 FILLER_0_15_329
*764 FILLER_0_15_335
*765 FILLER_0_15_337
*766 FILLER_0_15_349
*767 FILLER_0_15_361
*768 FILLER_0_15_373
*769 FILLER_0_15_38
*770 FILLER_0_15_385
*771 FILLER_0_15_391
*772 FILLER_0_15_393
*773 FILLER_0_15_405
*774 FILLER_0_15_42
*775 FILLER_0_15_67
*776 FILLER_0_15_75
*777 FILLER_0_15_86
*778 FILLER_0_16_123
*779 FILLER_0_16_141
*780 FILLER_0_16_15
*781 FILLER_0_16_170
*782 FILLER_0_16_174
*783 FILLER_0_16_191
*784 FILLER_0_16_195
*785 FILLER_0_16_197
*786 FILLER_0_16_214
*787 FILLER_0_16_218
*788 FILLER_0_16_230
*789 FILLER_0_16_242
*790 FILLER_0_16_250
*791 FILLER_0_16_253
*792 FILLER_0_16_265
*793 FILLER_0_16_27
*794 FILLER_0_16_277
*795 FILLER_0_16_289
*796 FILLER_0_16_29
*797 FILLER_0_16_3
*798 FILLER_0_16_301
*799 FILLER_0_16_307
*800 FILLER_0_16_309
*801 FILLER_0_16_321
*802 FILLER_0_16_333
*803 FILLER_0_16_345
*804 FILLER_0_16_357
*805 FILLER_0_16_363
*806 FILLER_0_16_365
*807 FILLER_0_16_377
*808 FILLER_0_16_389
*809 FILLER_0_16_401
*810 FILLER_0_16_65
*811 FILLER_0_16_83
*812 FILLER_0_16_94
*813 FILLER_0_16_98
*814 FILLER_0_17_105
*815 FILLER_0_17_111
*816 FILLER_0_17_113
*817 FILLER_0_17_125
*818 FILLER_0_17_136
*819 FILLER_0_17_148
*820 FILLER_0_17_15
*821 FILLER_0_17_165
*822 FILLER_0_17_169
*823 FILLER_0_17_177
*824 FILLER_0_17_186
*825 FILLER_0_17_198
*826 FILLER_0_17_217
*827 FILLER_0_17_223
*828 FILLER_0_17_225
*829 FILLER_0_17_237
*830 FILLER_0_17_249
*831 FILLER_0_17_261
*832 FILLER_0_17_27
*833 FILLER_0_17_273
*834 FILLER_0_17_279
*835 FILLER_0_17_281
*836 FILLER_0_17_293
*837 FILLER_0_17_3
*838 FILLER_0_17_305
*839 FILLER_0_17_317
*840 FILLER_0_17_329
*841 FILLER_0_17_335
*842 FILLER_0_17_337
*843 FILLER_0_17_349
*844 FILLER_0_17_361
*845 FILLER_0_17_373
*846 FILLER_0_17_385
*847 FILLER_0_17_391
*848 FILLER_0_17_393
*849 FILLER_0_17_40
*850 FILLER_0_17_405
*851 FILLER_0_17_44
*852 FILLER_0_17_57
*853 FILLER_0_17_69
*854 FILLER_0_17_81
*855 FILLER_0_17_85
*856 FILLER_0_17_94
*857 FILLER_0_18_106
*858 FILLER_0_18_118
*859 FILLER_0_18_128
*860 FILLER_0_18_132
*861 FILLER_0_18_136
*862 FILLER_0_18_141
*863 FILLER_0_18_149
*864 FILLER_0_18_15
*865 FILLER_0_18_174
*866 FILLER_0_18_186
*867 FILLER_0_18_194
*868 FILLER_0_18_197
*869 FILLER_0_18_221
*870 FILLER_0_18_233
*871 FILLER_0_18_245
*872 FILLER_0_18_251
*873 FILLER_0_18_253
*874 FILLER_0_18_265
*875 FILLER_0_18_27
*876 FILLER_0_18_277
*877 FILLER_0_18_289
*878 FILLER_0_18_29
*879 FILLER_0_18_3
*880 FILLER_0_18_301
*881 FILLER_0_18_307
*882 FILLER_0_18_309
*883 FILLER_0_18_321
*884 FILLER_0_18_333
*885 FILLER_0_18_345
*886 FILLER_0_18_357
*887 FILLER_0_18_363
*888 FILLER_0_18_365
*889 FILLER_0_18_377
*890 FILLER_0_18_389
*891 FILLER_0_18_401
*892 FILLER_0_18_41
*893 FILLER_0_18_53
*894 FILLER_0_18_65
*895 FILLER_0_18_73
*896 FILLER_0_18_94
*897 FILLER_0_19_107
*898 FILLER_0_19_113
*899 FILLER_0_19_123
*900 FILLER_0_19_128
*901 FILLER_0_19_141
*902 FILLER_0_19_15
*903 FILLER_0_19_161
*904 FILLER_0_19_167
*905 FILLER_0_19_177
*906 FILLER_0_19_185
*907 FILLER_0_19_209
*908 FILLER_0_19_221
*909 FILLER_0_19_225
*910 FILLER_0_19_237
*911 FILLER_0_19_249
*912 FILLER_0_19_261
*913 FILLER_0_19_27
*914 FILLER_0_19_273
*915 FILLER_0_19_279
*916 FILLER_0_19_281
*917 FILLER_0_19_293
*918 FILLER_0_19_3
*919 FILLER_0_19_305
*920 FILLER_0_19_317
*921 FILLER_0_19_329
*922 FILLER_0_19_335
*923 FILLER_0_19_337
*924 FILLER_0_19_349
*925 FILLER_0_19_361
*926 FILLER_0_19_373
*927 FILLER_0_19_385
*928 FILLER_0_19_39
*929 FILLER_0_19_391
*930 FILLER_0_19_393
*931 FILLER_0_19_405
*932 FILLER_0_19_51
*933 FILLER_0_19_55
*934 FILLER_0_19_57
*935 FILLER_0_19_65
*936 FILLER_0_19_84
*937 FILLER_0_1_106
*938 FILLER_0_1_113
*939 FILLER_0_1_122
*940 FILLER_0_1_134
*941 FILLER_0_1_156
*942 FILLER_0_1_166
*943 FILLER_0_1_184
*944 FILLER_0_1_196
*945 FILLER_0_1_200
*946 FILLER_0_1_215
*947 FILLER_0_1_223
*948 FILLER_0_1_225
*949 FILLER_0_1_237
*950 FILLER_0_1_249
*951 FILLER_0_1_257
*952 FILLER_0_1_266
*953 FILLER_0_1_27
*954 FILLER_0_1_288
*955 FILLER_0_1_296
*956 FILLER_0_1_311
*957 FILLER_0_1_323
*958 FILLER_0_1_335
*959 FILLER_0_1_337
*960 FILLER_0_1_357
*961 FILLER_0_1_369
*962 FILLER_0_1_375
*963 FILLER_0_1_391
*964 FILLER_0_1_393
*965 FILLER_0_1_401
*966 FILLER_0_1_52
*967 FILLER_0_1_57
*968 FILLER_0_1_78
*969 FILLER_0_1_97
*970 FILLER_0_20_141
*971 FILLER_0_20_15
*972 FILLER_0_20_168
*973 FILLER_0_20_172
*974 FILLER_0_20_191
*975 FILLER_0_20_195
*976 FILLER_0_20_197
*977 FILLER_0_20_207
*978 FILLER_0_20_211
*979 FILLER_0_20_223
*980 FILLER_0_20_235
*981 FILLER_0_20_247
*982 FILLER_0_20_251
*983 FILLER_0_20_253
*984 FILLER_0_20_265
*985 FILLER_0_20_27
*986 FILLER_0_20_277
*987 FILLER_0_20_289
*988 FILLER_0_20_29
*989 FILLER_0_20_3
*990 FILLER_0_20_301
*991 FILLER_0_20_307
*992 FILLER_0_20_309
*993 FILLER_0_20_321
*994 FILLER_0_20_333
*995 FILLER_0_20_345
*996 FILLER_0_20_357
*997 FILLER_0_20_363
*998 FILLER_0_20_365
*999 FILLER_0_20_377
*1000 FILLER_0_20_389
*1001 FILLER_0_20_401
*1002 FILLER_0_20_41
*1003 FILLER_0_20_53
*1004 FILLER_0_20_65
*1005 FILLER_0_20_77
*1006 FILLER_0_20_81
*1007 FILLER_0_20_85
*1008 FILLER_0_20_95
*1009 FILLER_0_21_111
*1010 FILLER_0_21_113
*1011 FILLER_0_21_117
*1012 FILLER_0_21_127
*1013 FILLER_0_21_132
*1014 FILLER_0_21_136
*1015 FILLER_0_21_140
*1016 FILLER_0_21_144
*1017 FILLER_0_21_148
*1018 FILLER_0_21_15
*1019 FILLER_0_21_152
*1020 FILLER_0_21_156
*1021 FILLER_0_21_160
*1022 FILLER_0_21_164
*1023 FILLER_0_21_177
*1024 FILLER_0_21_189
*1025 FILLER_0_21_193
*1026 FILLER_0_21_219
*1027 FILLER_0_21_223
*1028 FILLER_0_21_225
*1029 FILLER_0_21_237
*1030 FILLER_0_21_249
*1031 FILLER_0_21_261
*1032 FILLER_0_21_27
*1033 FILLER_0_21_273
*1034 FILLER_0_21_279
*1035 FILLER_0_21_281
*1036 FILLER_0_21_293
*1037 FILLER_0_21_3
*1038 FILLER_0_21_305
*1039 FILLER_0_21_317
*1040 FILLER_0_21_329
*1041 FILLER_0_21_335
*1042 FILLER_0_21_337
*1043 FILLER_0_21_349
*1044 FILLER_0_21_361
*1045 FILLER_0_21_373
*1046 FILLER_0_21_385
*1047 FILLER_0_21_39
*1048 FILLER_0_21_391
*1049 FILLER_0_21_393
*1050 FILLER_0_21_405
*1051 FILLER_0_21_51
*1052 FILLER_0_21_55
*1053 FILLER_0_21_57
*1054 FILLER_0_21_69
*1055 FILLER_0_21_77
*1056 FILLER_0_21_87
*1057 FILLER_0_21_91
*1058 FILLER_0_22_113
*1059 FILLER_0_22_133
*1060 FILLER_0_22_137
*1061 FILLER_0_22_141
*1062 FILLER_0_22_147
*1063 FILLER_0_22_15
*1064 FILLER_0_22_164
*1065 FILLER_0_22_168
*1066 FILLER_0_22_187
*1067 FILLER_0_22_197
*1068 FILLER_0_22_206
*1069 FILLER_0_22_218
*1070 FILLER_0_22_230
*1071 FILLER_0_22_242
*1072 FILLER_0_22_250
*1073 FILLER_0_22_253
*1074 FILLER_0_22_265
*1075 FILLER_0_22_27
*1076 FILLER_0_22_277
*1077 FILLER_0_22_289
*1078 FILLER_0_22_29
*1079 FILLER_0_22_3
*1080 FILLER_0_22_301
*1081 FILLER_0_22_307
*1082 FILLER_0_22_309
*1083 FILLER_0_22_321
*1084 FILLER_0_22_333
*1085 FILLER_0_22_345
*1086 FILLER_0_22_357
*1087 FILLER_0_22_363
*1088 FILLER_0_22_365
*1089 FILLER_0_22_377
*1090 FILLER_0_22_389
*1091 FILLER_0_22_401
*1092 FILLER_0_22_41
*1093 FILLER_0_22_53
*1094 FILLER_0_22_65
*1095 FILLER_0_22_85
*1096 FILLER_0_23_107
*1097 FILLER_0_23_111
*1098 FILLER_0_23_129
*1099 FILLER_0_23_15
*1100 FILLER_0_23_155
*1101 FILLER_0_23_159
*1102 FILLER_0_23_167
*1103 FILLER_0_23_177
*1104 FILLER_0_23_181
*1105 FILLER_0_23_193
*1106 FILLER_0_23_205
*1107 FILLER_0_23_217
*1108 FILLER_0_23_223
*1109 FILLER_0_23_225
*1110 FILLER_0_23_237
*1111 FILLER_0_23_249
*1112 FILLER_0_23_261
*1113 FILLER_0_23_27
*1114 FILLER_0_23_273
*1115 FILLER_0_23_279
*1116 FILLER_0_23_281
*1117 FILLER_0_23_293
*1118 FILLER_0_23_3
*1119 FILLER_0_23_305
*1120 FILLER_0_23_317
*1121 FILLER_0_23_329
*1122 FILLER_0_23_335
*1123 FILLER_0_23_337
*1124 FILLER_0_23_349
*1125 FILLER_0_23_361
*1126 FILLER_0_23_373
*1127 FILLER_0_23_385
*1128 FILLER_0_23_39
*1129 FILLER_0_23_391
*1130 FILLER_0_23_393
*1131 FILLER_0_23_405
*1132 FILLER_0_23_51
*1133 FILLER_0_23_55
*1134 FILLER_0_23_57
*1135 FILLER_0_23_69
*1136 FILLER_0_23_91
*1137 FILLER_0_24_109
*1138 FILLER_0_24_115
*1139 FILLER_0_24_124
*1140 FILLER_0_24_136
*1141 FILLER_0_24_141
*1142 FILLER_0_24_15
*1143 FILLER_0_24_153
*1144 FILLER_0_24_165
*1145 FILLER_0_24_177
*1146 FILLER_0_24_189
*1147 FILLER_0_24_195
*1148 FILLER_0_24_197
*1149 FILLER_0_24_209
*1150 FILLER_0_24_221
*1151 FILLER_0_24_233
*1152 FILLER_0_24_245
*1153 FILLER_0_24_251
*1154 FILLER_0_24_253
*1155 FILLER_0_24_265
*1156 FILLER_0_24_27
*1157 FILLER_0_24_277
*1158 FILLER_0_24_289
*1159 FILLER_0_24_29
*1160 FILLER_0_24_3
*1161 FILLER_0_24_301
*1162 FILLER_0_24_307
*1163 FILLER_0_24_309
*1164 FILLER_0_24_321
*1165 FILLER_0_24_333
*1166 FILLER_0_24_345
*1167 FILLER_0_24_357
*1168 FILLER_0_24_363
*1169 FILLER_0_24_365
*1170 FILLER_0_24_377
*1171 FILLER_0_24_389
*1172 FILLER_0_24_401
*1173 FILLER_0_24_41
*1174 FILLER_0_24_53
*1175 FILLER_0_24_65
*1176 FILLER_0_24_77
*1177 FILLER_0_24_83
*1178 FILLER_0_24_85
*1179 FILLER_0_24_97
*1180 FILLER_0_25_105
*1181 FILLER_0_25_111
*1182 FILLER_0_25_113
*1183 FILLER_0_25_125
*1184 FILLER_0_25_137
*1185 FILLER_0_25_149
*1186 FILLER_0_25_15
*1187 FILLER_0_25_161
*1188 FILLER_0_25_167
*1189 FILLER_0_25_169
*1190 FILLER_0_25_181
*1191 FILLER_0_25_193
*1192 FILLER_0_25_205
*1193 FILLER_0_25_217
*1194 FILLER_0_25_223
*1195 FILLER_0_25_225
*1196 FILLER_0_25_237
*1197 FILLER_0_25_249
*1198 FILLER_0_25_261
*1199 FILLER_0_25_27
*1200 FILLER_0_25_273
*1201 FILLER_0_25_279
*1202 FILLER_0_25_281
*1203 FILLER_0_25_293
*1204 FILLER_0_25_3
*1205 FILLER_0_25_305
*1206 FILLER_0_25_317
*1207 FILLER_0_25_329
*1208 FILLER_0_25_335
*1209 FILLER_0_25_337
*1210 FILLER_0_25_349
*1211 FILLER_0_25_361
*1212 FILLER_0_25_373
*1213 FILLER_0_25_385
*1214 FILLER_0_25_39
*1215 FILLER_0_25_391
*1216 FILLER_0_25_393
*1217 FILLER_0_25_405
*1218 FILLER_0_25_51
*1219 FILLER_0_25_55
*1220 FILLER_0_25_57
*1221 FILLER_0_25_69
*1222 FILLER_0_25_81
*1223 FILLER_0_25_93
*1224 FILLER_0_26_109
*1225 FILLER_0_26_121
*1226 FILLER_0_26_133
*1227 FILLER_0_26_139
*1228 FILLER_0_26_141
*1229 FILLER_0_26_15
*1230 FILLER_0_26_153
*1231 FILLER_0_26_165
*1232 FILLER_0_26_177
*1233 FILLER_0_26_189
*1234 FILLER_0_26_195
*1235 FILLER_0_26_197
*1236 FILLER_0_26_209
*1237 FILLER_0_26_221
*1238 FILLER_0_26_233
*1239 FILLER_0_26_245
*1240 FILLER_0_26_251
*1241 FILLER_0_26_253
*1242 FILLER_0_26_265
*1243 FILLER_0_26_27
*1244 FILLER_0_26_277
*1245 FILLER_0_26_289
*1246 FILLER_0_26_29
*1247 FILLER_0_26_3
*1248 FILLER_0_26_301
*1249 FILLER_0_26_307
*1250 FILLER_0_26_309
*1251 FILLER_0_26_321
*1252 FILLER_0_26_333
*1253 FILLER_0_26_345
*1254 FILLER_0_26_357
*1255 FILLER_0_26_363
*1256 FILLER_0_26_365
*1257 FILLER_0_26_377
*1258 FILLER_0_26_389
*1259 FILLER_0_26_401
*1260 FILLER_0_26_41
*1261 FILLER_0_26_53
*1262 FILLER_0_26_65
*1263 FILLER_0_26_77
*1264 FILLER_0_26_83
*1265 FILLER_0_26_85
*1266 FILLER_0_26_97
*1267 FILLER_0_27_105
*1268 FILLER_0_27_111
*1269 FILLER_0_27_113
*1270 FILLER_0_27_125
*1271 FILLER_0_27_137
*1272 FILLER_0_27_149
*1273 FILLER_0_27_15
*1274 FILLER_0_27_161
*1275 FILLER_0_27_167
*1276 FILLER_0_27_169
*1277 FILLER_0_27_181
*1278 FILLER_0_27_193
*1279 FILLER_0_27_205
*1280 FILLER_0_27_217
*1281 FILLER_0_27_223
*1282 FILLER_0_27_225
*1283 FILLER_0_27_237
*1284 FILLER_0_27_249
*1285 FILLER_0_27_261
*1286 FILLER_0_27_27
*1287 FILLER_0_27_273
*1288 FILLER_0_27_279
*1289 FILLER_0_27_281
*1290 FILLER_0_27_293
*1291 FILLER_0_27_3
*1292 FILLER_0_27_305
*1293 FILLER_0_27_317
*1294 FILLER_0_27_329
*1295 FILLER_0_27_335
*1296 FILLER_0_27_337
*1297 FILLER_0_27_349
*1298 FILLER_0_27_361
*1299 FILLER_0_27_373
*1300 FILLER_0_27_385
*1301 FILLER_0_27_39
*1302 FILLER_0_27_391
*1303 FILLER_0_27_393
*1304 FILLER_0_27_405
*1305 FILLER_0_27_51
*1306 FILLER_0_27_55
*1307 FILLER_0_27_57
*1308 FILLER_0_27_69
*1309 FILLER_0_27_81
*1310 FILLER_0_27_93
*1311 FILLER_0_28_109
*1312 FILLER_0_28_121
*1313 FILLER_0_28_133
*1314 FILLER_0_28_139
*1315 FILLER_0_28_141
*1316 FILLER_0_28_15
*1317 FILLER_0_28_153
*1318 FILLER_0_28_165
*1319 FILLER_0_28_177
*1320 FILLER_0_28_189
*1321 FILLER_0_28_195
*1322 FILLER_0_28_197
*1323 FILLER_0_28_209
*1324 FILLER_0_28_221
*1325 FILLER_0_28_233
*1326 FILLER_0_28_245
*1327 FILLER_0_28_251
*1328 FILLER_0_28_253
*1329 FILLER_0_28_265
*1330 FILLER_0_28_27
*1331 FILLER_0_28_277
*1332 FILLER_0_28_289
*1333 FILLER_0_28_29
*1334 FILLER_0_28_3
*1335 FILLER_0_28_301
*1336 FILLER_0_28_307
*1337 FILLER_0_28_309
*1338 FILLER_0_28_321
*1339 FILLER_0_28_333
*1340 FILLER_0_28_345
*1341 FILLER_0_28_357
*1342 FILLER_0_28_363
*1343 FILLER_0_28_365
*1344 FILLER_0_28_377
*1345 FILLER_0_28_389
*1346 FILLER_0_28_401
*1347 FILLER_0_28_41
*1348 FILLER_0_28_53
*1349 FILLER_0_28_65
*1350 FILLER_0_28_77
*1351 FILLER_0_28_83
*1352 FILLER_0_28_85
*1353 FILLER_0_28_97
*1354 FILLER_0_29_105
*1355 FILLER_0_29_111
*1356 FILLER_0_29_113
*1357 FILLER_0_29_125
*1358 FILLER_0_29_137
*1359 FILLER_0_29_149
*1360 FILLER_0_29_15
*1361 FILLER_0_29_161
*1362 FILLER_0_29_167
*1363 FILLER_0_29_169
*1364 FILLER_0_29_181
*1365 FILLER_0_29_193
*1366 FILLER_0_29_205
*1367 FILLER_0_29_217
*1368 FILLER_0_29_223
*1369 FILLER_0_29_225
*1370 FILLER_0_29_237
*1371 FILLER_0_29_249
*1372 FILLER_0_29_261
*1373 FILLER_0_29_27
*1374 FILLER_0_29_273
*1375 FILLER_0_29_279
*1376 FILLER_0_29_281
*1377 FILLER_0_29_293
*1378 FILLER_0_29_3
*1379 FILLER_0_29_305
*1380 FILLER_0_29_317
*1381 FILLER_0_29_329
*1382 FILLER_0_29_335
*1383 FILLER_0_29_337
*1384 FILLER_0_29_349
*1385 FILLER_0_29_361
*1386 FILLER_0_29_373
*1387 FILLER_0_29_385
*1388 FILLER_0_29_39
*1389 FILLER_0_29_391
*1390 FILLER_0_29_393
*1391 FILLER_0_29_405
*1392 FILLER_0_29_51
*1393 FILLER_0_29_55
*1394 FILLER_0_29_57
*1395 FILLER_0_29_69
*1396 FILLER_0_29_81
*1397 FILLER_0_29_93
*1398 FILLER_0_2_109
*1399 FILLER_0_2_121
*1400 FILLER_0_2_141
*1401 FILLER_0_2_15
*1402 FILLER_0_2_171
*1403 FILLER_0_2_175
*1404 FILLER_0_2_187
*1405 FILLER_0_2_195
*1406 FILLER_0_2_205
*1407 FILLER_0_2_217
*1408 FILLER_0_2_22
*1409 FILLER_0_2_229
*1410 FILLER_0_2_241
*1411 FILLER_0_2_249
*1412 FILLER_0_2_253
*1413 FILLER_0_2_265
*1414 FILLER_0_2_277
*1415 FILLER_0_2_289
*1416 FILLER_0_2_29
*1417 FILLER_0_2_300
*1418 FILLER_0_2_309
*1419 FILLER_0_2_321
*1420 FILLER_0_2_333
*1421 FILLER_0_2_345
*1422 FILLER_0_2_357
*1423 FILLER_0_2_363
*1424 FILLER_0_2_365
*1425 FILLER_0_2_377
*1426 FILLER_0_2_389
*1427 FILLER_0_2_401
*1428 FILLER_0_2_58
*1429 FILLER_0_2_74
*1430 FILLER_0_2_85
*1431 FILLER_0_2_97
*1432 FILLER_0_30_109
*1433 FILLER_0_30_121
*1434 FILLER_0_30_133
*1435 FILLER_0_30_139
*1436 FILLER_0_30_141
*1437 FILLER_0_30_15
*1438 FILLER_0_30_153
*1439 FILLER_0_30_165
*1440 FILLER_0_30_177
*1441 FILLER_0_30_189
*1442 FILLER_0_30_195
*1443 FILLER_0_30_197
*1444 FILLER_0_30_209
*1445 FILLER_0_30_221
*1446 FILLER_0_30_233
*1447 FILLER_0_30_245
*1448 FILLER_0_30_251
*1449 FILLER_0_30_253
*1450 FILLER_0_30_265
*1451 FILLER_0_30_27
*1452 FILLER_0_30_277
*1453 FILLER_0_30_289
*1454 FILLER_0_30_29
*1455 FILLER_0_30_3
*1456 FILLER_0_30_301
*1457 FILLER_0_30_307
*1458 FILLER_0_30_309
*1459 FILLER_0_30_321
*1460 FILLER_0_30_333
*1461 FILLER_0_30_345
*1462 FILLER_0_30_357
*1463 FILLER_0_30_363
*1464 FILLER_0_30_365
*1465 FILLER_0_30_377
*1466 FILLER_0_30_389
*1467 FILLER_0_30_401
*1468 FILLER_0_30_41
*1469 FILLER_0_30_53
*1470 FILLER_0_30_65
*1471 FILLER_0_30_77
*1472 FILLER_0_30_83
*1473 FILLER_0_30_85
*1474 FILLER_0_30_97
*1475 FILLER_0_31_105
*1476 FILLER_0_31_111
*1477 FILLER_0_31_113
*1478 FILLER_0_31_125
*1479 FILLER_0_31_137
*1480 FILLER_0_31_149
*1481 FILLER_0_31_15
*1482 FILLER_0_31_161
*1483 FILLER_0_31_167
*1484 FILLER_0_31_169
*1485 FILLER_0_31_181
*1486 FILLER_0_31_193
*1487 FILLER_0_31_205
*1488 FILLER_0_31_217
*1489 FILLER_0_31_223
*1490 FILLER_0_31_225
*1491 FILLER_0_31_237
*1492 FILLER_0_31_249
*1493 FILLER_0_31_261
*1494 FILLER_0_31_27
*1495 FILLER_0_31_273
*1496 FILLER_0_31_279
*1497 FILLER_0_31_281
*1498 FILLER_0_31_293
*1499 FILLER_0_31_3
*1500 FILLER_0_31_305
*1501 FILLER_0_31_317
*1502 FILLER_0_31_329
*1503 FILLER_0_31_335
*1504 FILLER_0_31_337
*1505 FILLER_0_31_349
*1506 FILLER_0_31_361
*1507 FILLER_0_31_373
*1508 FILLER_0_31_385
*1509 FILLER_0_31_39
*1510 FILLER_0_31_391
*1511 FILLER_0_31_393
*1512 FILLER_0_31_405
*1513 FILLER_0_31_51
*1514 FILLER_0_31_55
*1515 FILLER_0_31_57
*1516 FILLER_0_31_69
*1517 FILLER_0_31_81
*1518 FILLER_0_31_93
*1519 FILLER_0_32_109
*1520 FILLER_0_32_121
*1521 FILLER_0_32_133
*1522 FILLER_0_32_139
*1523 FILLER_0_32_141
*1524 FILLER_0_32_15
*1525 FILLER_0_32_153
*1526 FILLER_0_32_165
*1527 FILLER_0_32_177
*1528 FILLER_0_32_189
*1529 FILLER_0_32_195
*1530 FILLER_0_32_197
*1531 FILLER_0_32_209
*1532 FILLER_0_32_221
*1533 FILLER_0_32_233
*1534 FILLER_0_32_245
*1535 FILLER_0_32_251
*1536 FILLER_0_32_253
*1537 FILLER_0_32_265
*1538 FILLER_0_32_27
*1539 FILLER_0_32_277
*1540 FILLER_0_32_289
*1541 FILLER_0_32_29
*1542 FILLER_0_32_3
*1543 FILLER_0_32_301
*1544 FILLER_0_32_307
*1545 FILLER_0_32_309
*1546 FILLER_0_32_321
*1547 FILLER_0_32_333
*1548 FILLER_0_32_345